REMARK  6 active torsions:
REMARK  status: ('A' for Active; 'I' for Inactive)
REMARK    1  A    between atoms: C_2  and  CA_4 
REMARK    2  A    between atoms: C_12  and  C_13 
REMARK    3  A    between atoms: C_13  and  C_14 
REMARK    4  A    between atoms: C_14  and  C_15 
REMARK    5  A    between atoms: C_15  and  O_16 
REMARK    6  A    between atoms: O_16  and  C_17 
ROOT
ATOM      1  CA  UNL d   1       2.888  -1.126  -0.949  0.00  0.00     0.117 C 
ATOM      2  N   UNL d   1       2.682  -1.777  -2.141  0.00  0.00    -0.350 N 
ATOM      3  C   UNL d   1       3.525  -2.845  -2.286  0.00  0.00     0.043 A 
ATOM      4  C   UNL d   1       3.619  -3.811  -3.282  0.00  0.00     0.030 A 
ATOM      5  C   UNL d   1       4.531  -4.859  -3.086  0.00  0.00     0.002 A 
ATOM      6  C   UNL d   1       5.310  -4.951  -1.937  0.00  0.00     0.001 A 
ATOM      7  C   UNL d   1       5.225  -3.957  -0.974  0.00  0.00     0.014 A 
ATOM      8  C   UNL d   1       4.346  -2.865  -1.177  0.00  0.00    -0.001 A 
ATOM      9  C   UNL d   1       4.057  -1.693  -0.407  0.00  0.00    -0.012 C 
ATOM     10  H   UNL d   1       1.926  -1.502  -2.749  0.00  0.00     0.166 HD
ENDROOT
BRANCH   9  11
ATOM     11  C   UNL d   1       4.801  -1.577   0.874  0.00  0.00     0.044 C 
BRANCH  11  12
ATOM     12  C   UNL d   1       5.264  -0.223   1.344  0.00  0.00     0.031 C 
BRANCH  12  13
ATOM     13  C   UNL d   1       4.176   0.820   1.302  0.00  0.00     0.176 C 
BRANCH  13  14
ATOM     14  O   UNL d   1       3.082   0.778   2.267  0.00  0.00    -0.351 OA
BRANCH  14  15
ATOM     15  C   UNL d   1       2.337  -0.346   2.529  0.00  0.00     0.068 C 
ATOM     16  C   UNL d   1       0.943  -0.353   2.463  0.00  0.00     0.037 C 
ATOM     17  C   UNL d   1       0.213  -1.545   2.688  0.00  0.00     0.003 C 
ATOM     18  C   UNL d   1       0.874  -2.763   2.779  0.00  0.00     0.000 C 
ATOM     19  C   UNL d   1       2.247  -2.741   2.899  0.00  0.00     0.003 C 
ATOM     20  C   UNL d   1       2.912  -1.508   3.007  0.00  0.00     0.037 C 
ENDBRANCH  14  15
ENDBRANCH  13  14
ENDBRANCH  12  13
ENDBRANCH  11  12
ENDBRANCH   9  11
BRANCH   1  21
ATOM     21  C   UNL d   1       1.810  -0.125  -0.598  0.00  0.00     0.227 C 
ATOM     22  O   UNL d   1       0.631  -0.550  -0.696  0.00  0.00    -0.643 OA
ATOM     23  OXT UNL d   1       2.104   1.116  -0.444  0.00  0.00    -0.643 OA
ENDBRANCH   1  21
TORSDOF 6
