REMARK  6 active torsions:
REMARK  status: ('A' for Active; 'I' for Inactive)
REMARK    1  A    between atoms: C_5  and  O_6 
REMARK    2  A    between atoms: O_6  and  C_7 
REMARK    3  A    between atoms: C_7  and  C_8 
REMARK    4  A    between atoms: C_8  and  C_9 
REMARK    5  A    between atoms: C_9  and  C_10 
REMARK    6  A    between atoms: CA_11  and  C_12 
ROOT
ATOM      1  C   UNL d   1      -1.819   3.373  -0.023  0.00  0.00    -0.012 A 
ATOM      2  CA  UNL d   1      -1.938   4.732  -0.208  0.00  0.00     0.117 A 
ATOM      3  N   UNL d   1      -1.571   5.038  -1.503  0.00  0.00    -0.350 N 
ATOM      4  C   UNL d   1      -1.220   3.930  -2.261  0.00  0.00     0.043 A 
ATOM      5  C   UNL d   1      -0.832   3.753  -3.629  0.00  0.00     0.030 C 
ATOM      6  C   UNL d   1      -0.523   2.476  -4.167  0.00  0.00     0.002 C 
ATOM      7  C   UNL d   1      -0.620   1.368  -3.387  0.00  0.00     0.001 C 
ATOM      8  C   UNL d   1      -1.097   1.569  -2.104  0.00  0.00     0.014 C 
ATOM      9  C   UNL d   1      -1.368   2.836  -1.422  0.00  0.00    -0.001 A 
ATOM     10  H   UNL d   1      -1.632   5.986  -1.844  0.00  0.00     0.166 HD
ENDROOT
BRANCH   1  11
ATOM     11  C   UNL d   1      -2.275   2.701   1.383  0.00  0.00     0.044 C 
BRANCH  11  12
ATOM     12  C   UNL d   1      -3.664   2.067   1.257  0.00  0.00     0.031 C 
BRANCH  12  13
ATOM     13  C   UNL d   1      -3.808   1.066   0.074  0.00  0.00     0.176 C 
BRANCH  13  14
ATOM     14  O   UNL d   1      -3.165  -0.284   0.197  0.00  0.00    -0.351 OA
BRANCH  14  15
ATOM     15  C   UNL d   1      -1.807  -0.469   0.341  0.00  0.00     0.068 A 
ATOM     16  C   UNL d   1      -1.077  -1.603   0.157  0.00  0.00     0.037 A 
ATOM     17  C   UNL d   1       0.374  -1.528   0.087  0.00  0.00     0.009 A 
ATOM     18  C   UNL d   1       1.119  -0.322   0.178  0.00  0.00    -0.062 A 
ATOM     19  C   UNL d   1       2.589  -0.152   0.007  0.00  0.00     0.048 C 
ATOM     20  C   UNL d   1       0.408   0.798   0.400  0.00  0.00     0.009 A 
ATOM     21  C   UNL d   1      -0.960   0.586   0.450  0.00  0.00     0.037 A 
ENDBRANCH  14  15
ENDBRANCH  13  14
ENDBRANCH  12  13
ENDBRANCH  11  12
ENDBRANCH   1  11
BRANCH   2  22
ATOM     22  C   UNL d   1      -2.458   5.692   0.801  0.00  0.00     0.227 C 
ATOM     23  O   UNL d   1      -2.794   5.294   1.940  0.00  0.00    -0.643 OA
ATOM     24  OXT UNL d   1      -2.544   6.899   0.379  0.00  0.00    -0.643 OA
ENDBRANCH   2  22
TORSDOF 6
