REMARK  6 active torsions:
REMARK  status: ('A' for Active; 'I' for Inactive)
REMARK    1  A    between atoms: C_6  and  O_7 
REMARK    2  A    between atoms: O_7  and  C_8 
REMARK    3  A    between atoms: C_8  and  C_9 
REMARK    4  A    between atoms: C_9  and  C_10 
REMARK    5  A    between atoms: C_10  and  C_11 
REMARK    6  A    between atoms: CA_12  and  C_13 
ROOT
ATOM      1  C   UNL d   1       1.897   2.811  -0.063  0.00  0.00    -0.012 C 
ATOM      2  CA  UNL d   1       2.271   3.958  -0.749  0.00  0.00     0.117 C 
ATOM      3  N   UNL d   1       3.016   3.595  -1.854  0.00  0.00    -0.350 N 
ATOM      4  C   UNL d   1       3.123   2.241  -2.076  0.00  0.00     0.043 C 
ATOM      5  C   UNL d   1       3.835   1.426  -3.019  0.00  0.00     0.030 C 
ATOM      6  C   UNL d   1       3.750   0.007  -3.038  0.00  0.00     0.002 C 
ATOM      7  C   UNL d   1       2.821  -0.607  -2.285  0.00  0.00     0.001 C 
ATOM      8  C   UNL d   1       2.064   0.245  -1.507  0.00  0.00     0.014 C 
ATOM      9  C   UNL d   1       2.285   1.661  -1.152  0.00  0.00    -0.001 C 
ATOM     10  H   UNL d   1       3.371   4.323  -2.455  0.00  0.00     0.166 HD
ENDROOT
BRANCH   1  11
ATOM     11  C   UNL d   1       1.049   2.858   1.371  0.00  0.00     0.044 C 
BRANCH  11  12
ATOM     12  C   UNL d   1      -0.320   3.616   1.391  0.00  0.00     0.031 C 
BRANCH  12  13
ATOM     13  C   UNL d   1      -1.177   3.508   0.104  0.00  0.00     0.176 C 
BRANCH  13  14
ATOM     14  O   UNL d   1      -2.031   2.301  -0.030  0.00  0.00    -0.351 OA
BRANCH  14  15
ATOM     15  C   UNL d   1      -1.470   1.059   0.115  0.00  0.00     0.069 C 
ATOM     16  C   UNL d   1      -2.127  -0.131   0.103  0.00  0.00     0.037 C 
ATOM     17  C   UNL d   1      -1.359  -1.327   0.213  0.00  0.00     0.003 C 
ATOM     18  C   UNL d   1       0.020  -1.346   0.585  0.00  0.00     0.007 C 
ATOM     19  C   UNL d   1       0.687  -0.162   0.793  0.00  0.00    -0.059 C 
ATOM     20  C   UNL d   1       2.302  -0.116   1.087  0.00  0.00     0.048 C 
ATOM     21  C   UNL d   1      -0.115   0.891   0.201  0.00  0.00     0.043 C 
ENDBRANCH  14  15
ENDBRANCH  13  14
ENDBRANCH  12  13
ENDBRANCH  11  12
ENDBRANCH   1  11
BRANCH   2  22
ATOM     22  C   UNL d   1       1.934   5.387  -0.492  0.00  0.00     0.227 C 
ATOM     23  O   UNL d   1       1.309   5.737   0.514  0.00  0.00    -0.643 OA
ATOM     24  OXT UNL d   1       2.342   6.170  -1.440  0.00  0.00    -0.643 OA
ENDBRANCH   2  22
TORSDOF 6
