REMARK  6 active torsions:
REMARK  status: ('A' for Active; 'I' for Inactive)
REMARK    1  A    between atoms: C_4  and  O_5 
REMARK    2  A    between atoms: O_5  and  C_6 
REMARK    3  A    between atoms: C_6  and  C_7 
REMARK    4  A    between atoms: C_7  and  C_8 
REMARK    5  A    between atoms: C_8  and  C_9 
REMARK    6  A    between atoms: CA_10  and  C_11 
ROOT
ATOM      1  C   UNL d   1       2.590   3.289   0.121  0.00  0.00    -0.010 A 
ATOM      2  CA  UNL d   1       2.196   2.803   1.466  0.00  0.00     0.117 A 
ATOM      3  N   UNL d   1       2.022   3.923   2.218  0.00  0.00    -0.350 N 
ATOM      4  C   UNL d   1       2.343   5.042   1.529  0.00  0.00     0.045 A 
ATOM      5  C   UNL d   1       2.396   6.334   2.017  0.00  0.00     0.030 A 
ATOM      6  C   UNL d   1       2.757   7.338   1.127  0.00  0.00     0.004 A 
ATOM      7  C   UNL d   1       3.015   7.069  -0.207  0.00  0.00     0.025 A 
ATOM      8  C   UNL d   1       2.950   5.774  -0.676  0.00  0.00     0.047 A 
ATOM      9 CL   UNL d   1       3.321   5.551  -2.335  0.00  0.00    -0.083 Cl
ATOM     10  C   UNL d   1       2.642   4.713   0.207  0.00  0.00     0.021 A 
ATOM     11  H   UNL d   1       1.735   3.811   3.187  0.00  0.00     0.166 HD
ENDROOT
BRANCH   1  12
ATOM     12  C   UNL d   1       2.955   2.652  -1.328  0.00  0.00     0.044 C 
BRANCH  12  13
ATOM     13  C   UNL d   1       4.349   2.068  -1.323  0.00  0.00     0.031 C 
BRANCH  13  14
ATOM     14  C   UNL d   1       4.499   1.039  -0.186  0.00  0.00     0.176 C 
BRANCH  14  15
ATOM     15  O   UNL d   1       3.812  -0.255  -0.405  0.00  0.00    -0.351 OA
BRANCH  15  16
ATOM     16  C   UNL d   1       2.438  -0.386  -0.503  0.00  0.00     0.069 A 
ATOM     17  C   UNL d   1       1.552   0.673  -0.441  0.00  0.00     0.045 A 
ATOM     18  C   UNL d   1       0.172   0.920  -0.389  0.00  0.00    -0.037 A 
ATOM     19  C   UNL d   1      -0.449   2.294  -0.180  0.00  0.00     0.050 C 
ATOM     20  C   UNL d   1      -0.477  -0.261  -0.291  0.00  0.00     0.046 A 
ATOM     21  C   UNL d   1       0.301  -1.471  -0.261  0.00  0.00    -0.037 A 
ATOM     22 CL   UNL d   1      -2.189  -0.235  -0.040  0.00  0.00    -0.083 Cl
ATOM     23  C   UNL d   1       1.746  -1.536  -0.370  0.00  0.00     0.045 A 
ATOM     24  C   UNL d   1      -0.414  -2.744  -0.021  0.00  0.00     0.050 C 
ENDBRANCH  15  16
ENDBRANCH  14  15
ENDBRANCH  13  14
ENDBRANCH  12  13
ENDBRANCH   1  12
BRANCH   2  25
ATOM     25  C   UNL d   1       1.844   1.562   2.388  0.00  0.00     0.227 C 
ATOM     26  O   UNL d   1       1.439   1.893   3.535  0.00  0.00    -0.643 OA
ATOM     27  OXT UNL d   1       1.975   0.330   2.052  0.00  0.00    -0.643 OA
ENDBRANCH   2  25
TORSDOF 6
