REMARK  6 active torsions:
REMARK  status: ('A' for Active; 'I' for Inactive)
REMARK    1  A    between atoms: C_4  and  O_5 
REMARK    2  A    between atoms: O_5  and  C_6 
REMARK    3  A    between atoms: C_6  and  C_7 
REMARK    4  A    between atoms: C_7  and  C_8 
REMARK    5  A    between atoms: C_8  and  C_9 
REMARK    6  A    between atoms: CA_10  and  C_11 
ROOT
ATOM      1  C   UNL d   1       2.567   3.275   0.183  0.00  0.00    -0.012 A 
ATOM      2  CA  UNL d   1       2.117   2.809   1.513  0.00  0.00     0.117 A 
ATOM      3  N   UNL d   1       2.007   3.935   2.269  0.00  0.00    -0.350 N 
ATOM      4  C   UNL d   1       2.354   5.042   1.580  0.00  0.00     0.043 A 
ATOM      5  C   UNL d   1       2.423   6.350   2.010  0.00  0.00     0.030 A 
ATOM      6  C   UNL d   1       2.785   7.303   1.058  0.00  0.00     0.002 A 
ATOM      7  C   UNL d   1       3.063   6.967  -0.265  0.00  0.00     0.001 A 
ATOM      8  C   UNL d   1       3.002   5.650  -0.668  0.00  0.00     0.014 A 
ATOM      9  C   UNL d   1       2.657   4.679   0.282  0.00  0.00    -0.001 A 
ATOM     10  H   UNL d   1       1.698   3.838   3.236  0.00  0.00     0.166 HD
ENDROOT
BRANCH   1  11
ATOM     11  C   UNL d   1       2.940   2.693  -1.306  0.00  0.00     0.044 C 
BRANCH  11  12
ATOM     12  C   UNL d   1       4.329   2.078  -1.308  0.00  0.00     0.031 C 
BRANCH  12  13
ATOM     13  C   UNL d   1       4.494   1.053  -0.167  0.00  0.00     0.176 C 
BRANCH  13  14
ATOM     14  O   UNL d   1       3.817  -0.248  -0.373  0.00  0.00    -0.351 OA
BRANCH  14  15
ATOM     15  C   UNL d   1       2.446  -0.380  -0.482  0.00  0.00     0.069 A 
ATOM     16  C   UNL d   1       1.567   0.682  -0.432  0.00  0.00     0.045 A 
ATOM     17  C   UNL d   1       0.182   0.927  -0.400  0.00  0.00    -0.037 A 
ATOM     18  C   UNL d   1      -0.449   2.299  -0.192  0.00  0.00     0.050 C 
ATOM     19  C   UNL d   1      -0.471  -0.253  -0.306  0.00  0.00     0.046 A 
ATOM     20  C   UNL d   1       0.305  -1.464  -0.266  0.00  0.00    -0.037 A 
ATOM     21 CL   UNL d   1      -2.185  -0.227  -0.069  0.00  0.00    -0.083 Cl
ATOM     22  C   UNL d   1       1.750  -1.529  -0.357  0.00  0.00     0.045 A 
ATOM     23  C   UNL d   1      -0.413  -2.736  -0.026  0.00  0.00     0.050 C 
ENDBRANCH  14  15
ENDBRANCH  13  14
ENDBRANCH  12  13
ENDBRANCH  11  12
ENDBRANCH   1  11
BRANCH   2  24
ATOM     24  C   UNL d   1       1.687   1.558   2.384  0.00  0.00     0.227 C 
ATOM     25  O   UNL d   1       1.870   0.360   2.096  0.00  0.00    -0.643 OA
ATOM     26  OXT UNL d   1       1.146   1.919   3.505  0.00  0.00    -0.643 OA
ENDBRANCH   2  24
TORSDOF 6
