REMARK  6 active torsions:
REMARK  status: ('A' for Active; 'I' for Inactive)
REMARK    1  A    between atoms: C_4  and  O_5 
REMARK    2  A    between atoms: O_5  and  C_6 
REMARK    3  A    between atoms: C_6  and  C_7 
REMARK    4  A    between atoms: C_7  and  C_8 
REMARK    5  A    between atoms: C_8  and  C_9 
REMARK    6  A    between atoms: CA_10  and  C_11 
ROOT
ATOM      1  C   UNL d   1      -2.323   3.187  -0.127  0.00  0.00    -0.010 A 
ATOM      2  CA  UNL d   1      -2.363   4.553  -0.295  0.00  0.00     0.117 A 
ATOM      3  N   UNL d   1      -1.960   4.837  -1.575  0.00  0.00    -0.350 N 
ATOM      4  C   UNL d   1      -1.547   3.736  -2.316  0.00  0.00     0.045 A 
ATOM      5  C   UNL d   1      -1.033   3.644  -3.640  0.00  0.00     0.030 C 
ATOM      6  C   UNL d   1      -0.560   2.436  -4.184  0.00  0.00     0.004 C 
ATOM      7  C   UNL d   1      -0.639   1.287  -3.468  0.00  0.00     0.025 C 
ATOM      8  C   UNL d   1      -1.427   1.328  -2.322  0.00  0.00     0.047 C 
ATOM      9 CL   UNL d   1      -2.159  -0.246  -2.270  0.00  0.00    -0.083 Cl
ATOM     10  C   UNL d   1      -1.805   2.587  -1.568  0.00  0.00     0.021 A 
ATOM     11  H   UNL d   1      -1.966   5.789  -1.906  0.00  0.00     0.166 HD
ENDROOT
BRANCH   1  12
ATOM     12  C   UNL d   1      -2.752   2.601   1.329  0.00  0.00     0.044 C 
BRANCH  12  13
ATOM     13  C   UNL d   1      -4.190   2.125   1.274  0.00  0.00     0.031 C 
BRANCH  13  14
ATOM     14  C   UNL d   1      -4.397   1.124   0.122  0.00  0.00     0.176 C 
BRANCH  14  15
ATOM     15  O   UNL d   1      -3.810  -0.237   0.338  0.00  0.00    -0.351 OA
BRANCH  15  16
ATOM     16  C   UNL d   1      -2.455  -0.478   0.562  0.00  0.00     0.069 C 
ATOM     17  C   UNL d   1      -1.499   0.516   0.453  0.00  0.00     0.045 C 
ATOM     18  C   UNL d   1      -0.100   0.657   0.450  0.00  0.00    -0.038 C 
ATOM     19  C   UNL d   1       0.635   1.983   0.227  0.00  0.00     0.050 C 
ATOM     20  C   UNL d   1       0.458  -0.579   0.405  0.00  0.00     0.040 C 
ATOM     21  C   UNL d   1      -0.397  -1.730   0.399  0.00  0.00     0.027 C 
ATOM     22 CL   UNL d   1       2.143  -0.729   0.094  0.00  0.00    -0.084 Cl
ATOM     23  C   UNL d   1      -1.840  -1.690   0.494  0.00  0.00     0.038 C 
ENDBRANCH  15  16
ENDBRANCH  14  15
ENDBRANCH  13  14
ENDBRANCH  12  13
ENDBRANCH   1  12
BRANCH   2  24
ATOM     24  C   UNL d   1      -2.812   5.556   0.719  0.00  0.00     0.227 C 
ATOM     25  O   UNL d   1      -2.844   6.761   0.279  0.00  0.00    -0.643 OA
ATOM     26  OXT UNL d   1      -3.140   5.200   1.875  0.00  0.00    -0.643 OA
ENDBRANCH   2  24
TORSDOF 6
