REMARK  6 active torsions:
REMARK  status: ('A' for Active; 'I' for Inactive)
REMARK    1  A    between atoms: C_4  and  O_5 
REMARK    2  A    between atoms: O_5  and  C_6 
REMARK    3  A    between atoms: C_6  and  C_7 
REMARK    4  A    between atoms: C_7  and  C_8 
REMARK    5  A    between atoms: C_8  and  C_9 
REMARK    6  A    between atoms: C_10  and  C_11 
ROOT
ATOM      1  C   UNL d   1       2.561   3.258   0.256  0.00  0.00    -0.022 A 
ATOM      2  C   UNL d   1       2.146   2.692   1.593  0.00  0.00     0.089 A 
ATOM      3  S   UNL d   1       1.892   3.980   2.689  0.00  0.00    -0.082 SA
ATOM      4  C   UNL d   1       2.341   5.138   1.593  0.00  0.00     0.018 A 
ATOM      5  C   UNL d   1       2.426   6.459   1.974  0.00  0.00     0.043 A 
ATOM      6  C   UNL d   1       2.795   7.370   1.013  0.00  0.00     0.035 A 
ATOM      7 CL   UNL d   1       2.957   9.000   1.499  0.00  0.00    -0.084 Cl
ATOM      8  C   UNL d   1       3.033   6.985  -0.298  0.00  0.00     0.024 A 
ATOM      9  C   UNL d   1       2.933   5.649  -0.666  0.00  0.00     0.015 A 
ATOM     10  C   UNL d   1       2.614   4.691   0.322  0.00  0.00    -0.011 A 
ENDROOT
BRANCH   1  11
ATOM     11  C   UNL d   1       2.958   2.698  -1.294  0.00  0.00     0.043 C 
BRANCH  11  12
ATOM     12  C   UNL d   1       4.344   2.082  -1.311  0.00  0.00     0.031 C 
BRANCH  12  13
ATOM     13  C   UNL d   1       4.498   1.036  -0.194  0.00  0.00     0.176 C 
BRANCH  13  14
ATOM     14  O   UNL d   1       3.814  -0.256  -0.439  0.00  0.00    -0.351 OA
BRANCH  14  15
ATOM     15  C   UNL d   1       2.440  -0.389  -0.564  0.00  0.00     0.069 A 
ATOM     16  C   UNL d   1       1.558   0.675  -0.500  0.00  0.00     0.045 A 
ATOM     17  C   UNL d   1       0.176   0.917  -0.423  0.00  0.00    -0.037 A 
ATOM     18  C   UNL d   1      -0.447   2.289  -0.195  0.00  0.00     0.050 C 
ATOM     19  C   UNL d   1      -0.474  -0.264  -0.312  0.00  0.00     0.046 A 
ATOM     20  C   UNL d   1       0.302  -1.475  -0.287  0.00  0.00    -0.037 A 
ATOM     21 CL   UNL d   1      -2.183  -0.235  -0.042  0.00  0.00    -0.083 Cl
ATOM     22  C   UNL d   1       1.746  -1.540  -0.413  0.00  0.00     0.045 A 
ATOM     23  C   UNL d   1      -0.413  -2.745  -0.025  0.00  0.00     0.050 C 
ENDBRANCH  14  15
ENDBRANCH  13  14
ENDBRANCH  12  13
ENDBRANCH  11  12
ENDBRANCH   1  11
BRANCH   2  24
ATOM     24  C   UNL d   1       1.807   1.333   2.411  0.00  0.00     0.217 C 
ATOM     25  O   UNL d   1       1.353   1.464   3.581  0.00  0.00    -0.643 OA
ATOM     26  O   UNL d   1       2.011   0.151   1.949  0.00  0.00    -0.643 OA
ENDBRANCH   2  24
TORSDOF 6
