REMARK  7 active torsions:
REMARK  status: ('A' for Active; 'I' for Inactive)
REMARK    1  A    between atoms: C_2  and  C_3 
REMARK    2  A    between atoms: C_5  and  O_6 
REMARK    3  A    between atoms: O_6  and  C_7 
REMARK    4  A    between atoms: C_7  and  C_8 
REMARK    5  A    between atoms: C_8  and  C_9 
REMARK    6  A    between atoms: C_9  and  C_10 
REMARK    7  A    between atoms: CA_11  and  C_12 
ROOT
ATOM      1  C   UNL d   1       2.091   6.854   1.878  0.00  0.00    -0.012 A 
ATOM      2  CA  UNL d   1       1.273   6.331   2.982  0.00  0.00     0.117 A 
ATOM      3  N   UNL d   1       0.886   7.413   3.710  0.00  0.00    -0.350 N 
ATOM      4  C   UNL d   1       1.469   8.545   3.259  0.00  0.00     0.043 A 
ATOM      5  C   UNL d   1       1.414   9.819   3.784  0.00  0.00     0.030 A 
ATOM      6  C   UNL d   1       2.080  10.815   3.071  0.00  0.00     0.002 A 
ATOM      7  C   UNL d   1       2.814  10.540   1.920  0.00  0.00     0.001 A 
ATOM      8  C   UNL d   1       2.891   9.247   1.440  0.00  0.00     0.014 A 
ATOM      9  C   UNL d   1       2.184   8.244   2.116  0.00  0.00    -0.001 A 
ATOM     10  H   UNL d   1       0.342   7.267   4.557  0.00  0.00     0.166 HD
ENDROOT
BRANCH   1  11
ATOM     11  C   UNL d   1       2.990   6.354   0.595  0.00  0.00     0.044 C 
BRANCH  11  12
ATOM     12  C   UNL d   1       4.449   6.015   0.992  0.00  0.00     0.031 C 
BRANCH  12  13
ATOM     13  C   UNL d   1       4.587   5.064   2.212  0.00  0.00     0.176 C 
BRANCH  13  14
ATOM     14  O   UNL d   1       4.289   3.624   1.980  0.00  0.00    -0.351 OA
BRANCH  14  15
ATOM     15  C   UNL d   1       3.046   3.214   1.567  0.00  0.00     0.069 C 
ATOM     16  C   UNL d   1       2.497   1.983   1.588  0.00  0.00     0.045 C 
ATOM     17  C   UNL d   1       1.059   1.812   1.332  0.00  0.00    -0.034 C 
ATOM     18  C   UNL d   1       0.167   2.854   1.004  0.00  0.00     0.040 C 
ATOM     19  C   UNL d   1       0.706   4.075   0.931  0.00  0.00     0.027 C 
ATOM     20 CL   UNL d   1      -1.548   2.737   0.867  0.00  0.00    -0.084 Cl
ATOM     21  C   UNL d   1       2.058   4.098   1.310  0.00  0.00     0.038 C 
BRANCH  17  22
ATOM     22  C   UNL d   1       0.543   0.426   1.341  0.00  0.00     0.036 C 
ATOM     23  C   UNL d   1       1.021  -0.129   0.019  0.00  0.00     0.010 C 
ENDBRANCH  17  22
ENDBRANCH  14  15
ENDBRANCH  13  14
ENDBRANCH  12  13
ENDBRANCH  11  12
ENDBRANCH   1  11
BRANCH   2  24
ATOM     24  C   UNL d   1       0.754   5.040   3.710  0.00  0.00     0.227 C 
ATOM     25  O   UNL d   1       1.423   3.986   3.820  0.00  0.00    -0.643 OA
ATOM     26  OXT UNL d   1      -0.362   5.234   4.327  0.00  0.00    -0.643 OA
ENDBRANCH   2  24
TORSDOF 7
