REMARK  6 active torsions:
REMARK  status: ('A' for Active; 'I' for Inactive)
REMARK    1  A    between atoms: C_2  and  CA_4 
REMARK    2  A    between atoms: C_12  and  C_13 
REMARK    3  A    between atoms: C_13  and  C_14 
REMARK    4  A    between atoms: C_14  and  C_15 
REMARK    5  A    between atoms: C_15  and  O_16 
REMARK    6  A    between atoms: O_16  and  C_17 
ROOT
ATOM      1  C   UNL d   1       5.121   1.181  -1.251  0.00  0.00     0.044 C 
ENDROOT
BRANCH   1   2
ATOM      2  C   UNL d   1       4.248   1.696  -0.157  0.00  0.00    -0.012 C 
ATOM      3  C   UNL d   1       4.535   3.042   0.247  0.00  0.00    -0.001 A 
ATOM      4  C   UNL d   1       5.497   3.989  -0.180  0.00  0.00     0.014 A 
ATOM      5  C   UNL d   1       3.622   3.389   1.222  0.00  0.00     0.043 A 
ATOM      6  C   UNL d   1       5.561   5.226   0.444  0.00  0.00     0.001 A 
ATOM      7  C   UNL d   1       4.679   5.516   1.479  0.00  0.00     0.002 A 
ATOM      8  C   UNL d   1       3.688   4.610   1.885  0.00  0.00     0.030 A 
ATOM      9  N   UNL d   1       2.733   2.356   1.320  0.00  0.00    -0.350 N 
ATOM     10  CA  UNL d   1       3.015   1.344   0.430  0.00  0.00     0.117 C 
ATOM     11  H   UNL d   1       1.911   2.300   1.903  0.00  0.00     0.166 HD
BRANCH  10  12
ATOM     12  C   UNL d   1       1.928   0.287   0.371  0.00  0.00     0.227 C 
ATOM     13  O   UNL d   1       0.753   0.745   0.342  0.00  0.00    -0.643 OA
ATOM     14  OXT UNL d   1       2.197  -0.947   0.589  0.00  0.00    -0.643 OA
ENDBRANCH  10  12
ENDBRANCH   1   2
BRANCH   1  15
ATOM     15  C   UNL d   1       5.523  -0.272  -1.257  0.00  0.00     0.031 C 
BRANCH  15  16
ATOM     16  C   UNL d   1       4.377  -1.219  -1.004  0.00  0.00     0.176 C 
BRANCH  16  17
ATOM     17  O   UNL d   1       3.365  -1.447  -2.033  0.00  0.00    -0.350 OA
BRANCH  17  18
ATOM     18  C   UNL d   1       2.708  -0.394  -2.657  0.00  0.00     0.081 C 
ATOM     19  C   UNL d   1       3.424   0.527  -3.407  0.00  0.00     0.038 C 
ATOM     20  C   UNL d   1       2.897   1.783  -3.733  0.00  0.00     0.005 C 
ATOM     21  C   UNL d   1       1.534   1.992  -3.744  0.00  0.00     0.030 C 
ATOM     22  C   UNL d   1       0.770   0.871  -3.433  0.00  0.00     0.045 C 
ATOM     23  N   UNL d   1      -0.578   0.674  -3.598  0.00  0.00    -0.365 N 
ATOM     24  C   UNL d   1       1.309  -0.296  -2.855  0.00  0.00     0.025 C 
ATOM     25  C   UNL d   1      -0.917  -0.588  -3.202  0.00  0.00     0.089 C 
ATOM     26  H   UNL d   1      -1.196   1.346  -4.030  0.00  0.00     0.165 HD
ATOM     27  C   UNL d   1       0.199  -1.157  -2.627  0.00  0.00     0.033 C 
ENDBRANCH  17  18
ENDBRANCH  16  17
ENDBRANCH  15  16
ENDBRANCH   1  15
TORSDOF 6
