REMARK  6 active torsions:
REMARK  status: ('A' for Active; 'I' for Inactive)
REMARK    1  A    between atoms: C_4  and  O_5 
REMARK    2  A    between atoms: O_5  and  C_6 
REMARK    3  A    between atoms: C_6  and  C_7 
REMARK    4  A    between atoms: C_7  and  C_8 
REMARK    5  A    between atoms: C_8  and  C_9 
REMARK    6  A    between atoms: C_10  and  C_11 
ROOT
ATOM      1  C   UNL d   1       2.600   3.385   0.066  0.00  0.00    -0.012 A 
ATOM      2  C   UNL d   1       2.678   4.759   0.211  0.00  0.00     0.119 A 
ATOM      3  N   UNL d   1       2.347   5.050   1.522  0.00  0.00    -0.345 N 
ATOM      4  C   UNL d   1       2.350   6.365   2.102  0.00  0.00     0.157 C 
ATOM      5  C   UNL d   1       2.000   3.948   2.301  0.00  0.00     0.045 A 
ATOM      6  C   UNL d   1       1.577   3.808   3.664  0.00  0.00     0.030 C 
ATOM      7  C   UNL d   1       1.194   2.564   4.213  0.00  0.00     0.002 C 
ATOM      8  C   UNL d   1       1.272   1.439   3.453  0.00  0.00     0.001 C 
ATOM      9  C   UNL d   1       1.828   1.585   2.189  0.00  0.00     0.014 C 
ATOM     10  C   UNL d   1       2.162   2.841   1.496  0.00  0.00    -0.001 A 
ENDROOT
BRANCH   1  11
ATOM     11  C   UNL d   1       2.937   2.695  -1.369  0.00  0.00     0.044 C 
BRANCH  11  12
ATOM     12  C   UNL d   1       4.315   2.056  -1.327  0.00  0.00     0.031 C 
BRANCH  12  13
ATOM     13  C   UNL d   1       4.489   1.070  -0.146  0.00  0.00     0.176 C 
BRANCH  13  14
ATOM     14  O   UNL d   1       3.801  -0.243  -0.238  0.00  0.00    -0.351 OA
BRANCH  14  15
ATOM     15  C   UNL d   1       2.436  -0.385  -0.323  0.00  0.00     0.069 A 
ATOM     16  C   UNL d   1       1.557   0.674  -0.358  0.00  0.00     0.045 A 
ATOM     17  C   UNL d   1       0.174   0.909  -0.298  0.00  0.00    -0.037 A 
ATOM     18  C   UNL d   1      -0.450   2.293  -0.167  0.00  0.00     0.050 C 
ATOM     19  C   UNL d   1      -0.479  -0.265  -0.170  0.00  0.00     0.046 A 
ATOM     20  C   UNL d   1       0.301  -1.470  -0.103  0.00  0.00    -0.037 A 
ATOM     21 CL   UNL d   1      -2.195  -0.239   0.007  0.00  0.00    -0.083 Cl
ATOM     22  C   UNL d   1       1.745  -1.532  -0.163  0.00  0.00     0.045 A 
ATOM     23  C   UNL d   1      -0.425  -2.753   0.015  0.00  0.00     0.050 C 
ENDBRANCH  14  15
ENDBRANCH  13  14
ENDBRANCH  12  13
ENDBRANCH  11  12
ENDBRANCH   1  11
BRANCH   2  24
ATOM     24  C   UNL d   1       3.087   5.689  -0.904  0.00  0.00     0.227 C 
ATOM     25  O   UNL d   1       3.332   5.239  -2.047  0.00  0.00    -0.643 OA
ATOM     26  O   UNL d   1       3.187   6.933  -0.611  0.00  0.00    -0.643 OA
ENDBRANCH   2  24
TORSDOF 6
