REMARK  6 active torsions:
REMARK  status: ('A' for Active; 'I' for Inactive)
REMARK    1  A    between atoms: C_7  and  O_8 
REMARK    2  A    between atoms: O_8  and  C_9 
REMARK    3  A    between atoms: C_9  and  C_10 
REMARK    4  A    between atoms: C_10  and  C_11 
REMARK    5  A    between atoms: C_11  and  C_12 
REMARK    6  A    between atoms: CA_13  and  C_14 
ROOT
ATOM      1  C   UNL d   1       3.956  -0.512   0.313  0.00  0.00    -0.012 A 
ATOM      2  CA  UNL d   1       4.368  -0.029  -0.967  0.00  0.00     0.117 A 
ATOM      3  N   UNL d   1       4.217  -1.052  -1.911  0.00  0.00    -0.350 N 
ATOM      4  C   UNL d   1       3.783  -2.242  -1.351  0.00  0.00     0.043 A 
ATOM      5  C   UNL d   1       3.337  -3.435  -1.987  0.00  0.00     0.030 C 
ATOM      6  C   UNL d   1       2.715  -4.431  -1.221  0.00  0.00     0.002 C 
ATOM      7  C   UNL d   1       2.420  -4.188   0.112  0.00  0.00     0.001 C 
ATOM      8  C   UNL d   1       2.843  -2.987   0.724  0.00  0.00     0.014 C 
ATOM      9  C   UNL d   1       3.639  -2.006   0.031  0.00  0.00    -0.001 A 
ATOM     10  H   UNL d   1       4.108  -0.811  -2.892  0.00  0.00     0.166 HD
ENDROOT
BRANCH   1  11
ATOM     11  C   UNL d   1       3.157   0.362   1.536  0.00  0.00     0.044 C 
BRANCH  11  12
ATOM     12  C   UNL d   1       2.973   1.913   1.394  0.00  0.00     0.031 C 
BRANCH  12  13
ATOM     13  C   UNL d   1       2.054   2.564   0.249  0.00  0.00     0.176 C 
BRANCH  13  14
ATOM     14  O   UNL d   1       0.589   2.450   0.354  0.00  0.00    -0.351 OA
BRANCH  14  15
ATOM     15  C   UNL d   1      -0.133   1.318   0.078  0.00  0.00     0.074 C 
ATOM     16  C   UNL d   1      -1.506   1.321   0.095  0.00  0.00     0.037 C 
ATOM     17  C   UNL d   1      -2.259   0.097   0.044  0.00  0.00     0.003 C 
ATOM     18  C   UNL d   1      -1.674  -1.164   0.028  0.00  0.00     0.001 C 
ATOM     19  C   UNL d   1      -0.346  -1.172  -0.114  0.00  0.00     0.009 C 
ATOM     20  C   UNL d   1       0.322   0.063  -0.216  0.00  0.00    -0.029 C 
ATOM     21  C   UNL d   1       1.618  -0.209  -0.707  0.00  0.00     0.051 C 
ENDBRANCH  14  15
ENDBRANCH  13  14
ENDBRANCH  12  13
ENDBRANCH  11  12
ENDBRANCH   1  11
BRANCH   2  22
ATOM     22  C   UNL d   1       4.490   1.363  -1.526  0.00  0.00     0.227 C 
ATOM     23  O   UNL d   1       4.790   2.318  -0.722  0.00  0.00    -0.643 OA
ATOM     24  OXT UNL d   1       4.224   1.489  -2.748  0.00  0.00    -0.643 OA
ENDBRANCH   2  22
TORSDOF 6
