REMARK  6 active torsions:
REMARK  status: ('A' for Active; 'I' for Inactive)
REMARK    1  A    between atoms: C_4  and  O_5 
REMARK    2  A    between atoms: O_5  and  C_6 
REMARK    3  A    between atoms: C_6  and  C_7 
REMARK    4  A    between atoms: C_7  and  C_8 
REMARK    5  A    between atoms: C_8  and  C_9 
REMARK    6  A    between atoms: C_10  and  C_11 
ROOT
ATOM      1  C   UNL d   1       2.566   3.210   0.189  0.00  0.00    -0.012 A 
ATOM      2  C   UNL d   1       2.160   2.659   1.543  0.00  0.00     0.119 A 
ATOM      3  N   UNL d   1       1.982   3.795   2.304  0.00  0.00    -0.345 N 
ATOM      4  C   UNL d   1       1.611   3.837   3.694  0.00  0.00     0.157 C 
ATOM      5  C   UNL d   1       2.308   4.936   1.598  0.00  0.00     0.047 A 
ATOM      6  C   UNL d   1       2.383   6.257   2.029  0.00  0.00     0.054 A 
ATOM      7  C   UNL d   1       2.752   7.229   1.095  0.00  0.00     0.036 A 
ATOM      8 CL   UNL d   1       2.907   8.857   1.619  0.00  0.00    -0.084 Cl
ATOM      9  C   UNL d   1       3.005   6.925  -0.235  0.00  0.00     0.025 A 
ATOM     10  C   UNL d   1       2.918   5.613  -0.655  0.00  0.00     0.016 A 
ATOM     11  C   UNL d   1       2.602   4.614   0.290  0.00  0.00    -0.000 A 
ENDROOT
BRANCH   1  12
ATOM     12  C   UNL d   1       2.963   2.679  -1.329  0.00  0.00     0.044 C 
BRANCH  12  13
ATOM     13  C   UNL d   1       4.351   2.079  -1.328  0.00  0.00     0.031 C 
BRANCH  13  14
ATOM     14  C   UNL d   1       4.498   1.040  -0.204  0.00  0.00     0.176 C 
BRANCH  14  15
ATOM     15  O   UNL d   1       3.817  -0.255  -0.465  0.00  0.00    -0.351 OA
BRANCH  15  16
ATOM     16  C   UNL d   1       2.441  -0.391  -0.630  0.00  0.00     0.069 A 
ATOM     17  C   UNL d   1       1.551   0.672  -0.559  0.00  0.00     0.045 A 
ATOM     18  C   UNL d   1       0.171   0.923  -0.449  0.00  0.00    -0.037 A 
ATOM     19  C   UNL d   1      -0.445   2.296  -0.196  0.00  0.00     0.050 C 
ATOM     20  C   UNL d   1      -0.476  -0.258  -0.323  0.00  0.00     0.046 A 
ATOM     21  C   UNL d   1       0.303  -1.470  -0.305  0.00  0.00    -0.037 A 
ATOM     22 CL   UNL d   1      -2.181  -0.228  -0.031  0.00  0.00    -0.083 Cl
ATOM     23  C   UNL d   1       1.747  -1.540  -0.453  0.00  0.00     0.045 A 
ATOM     24  C   UNL d   1      -0.409  -2.738  -0.027  0.00  0.00     0.050 C 
ENDBRANCH  15  16
ENDBRANCH  14  15
ENDBRANCH  13  14
ENDBRANCH  12  13
ENDBRANCH   1  12
BRANCH   2  25
ATOM     25  C   UNL d   1       1.853   1.218   2.324  0.00  0.00     0.227 C 
ATOM     26  O   UNL d   1       1.384   1.211   3.485  0.00  0.00    -0.643 OA
ATOM     27  O   UNL d   1       2.110   0.070   1.819  0.00  0.00    -0.643 OA
ENDBRANCH   2  25
TORSDOF 6
