REMARK  7 active torsions:
REMARK  status: ('A' for Active; 'I' for Inactive)
REMARK    1  A    between atoms: C_2  and  CA_4 
REMARK    2  A    between atoms: C_12  and  C_13 
REMARK    3  A    between atoms: C_13  and  C_14 
REMARK    4  A    between atoms: C_14  and  C_15 
REMARK    5  A    between atoms: C_15  and  O_16 
REMARK    6  A    between atoms: O_16  and  C_17 
REMARK    7  A    between atoms: C_20  and  C_21 
ROOT
ATOM      1  C   UNL d   1       5.069   0.334   1.300  0.00  0.00     0.044 C 
ENDROOT
BRANCH   1   2
ATOM      2  C   UNL d   1       4.212  -0.887   1.179  0.00  0.00    -0.012 C 
ATOM      3  C   UNL d   1       4.641  -1.988   1.995  0.00  0.00    -0.001 A 
ATOM      4  C   UNL d   1       5.725  -2.154   2.892  0.00  0.00     0.014 A 
ATOM      5  C   UNL d   1       3.753  -3.025   1.799  0.00  0.00     0.043 A 
ATOM      6  C   UNL d   1       5.931  -3.382   3.501  0.00  0.00     0.001 A 
ATOM      7  C   UNL d   1       5.066  -4.434   3.224  0.00  0.00     0.002 A 
ATOM      8  C   UNL d   1       3.958  -4.277   2.375  0.00  0.00     0.030 A 
ATOM      9  N   UNL d   1       2.744  -2.543   1.009  0.00  0.00    -0.350 N 
ATOM     10  CA  UNL d   1       2.939  -1.222   0.665  0.00  0.00     0.117 C 
ATOM     11  H   UNL d   1       1.920  -3.034   0.697  0.00  0.00     0.166 HD
BRANCH  10  12
ATOM     12  C   UNL d   1       1.760  -0.611  -0.081  0.00  0.00     0.227 C 
ATOM     13  O   UNL d   1       0.631  -0.839   0.423  0.00  0.00    -0.643 OA
ATOM     14  OXT UNL d   1       1.914  -0.092  -1.247  0.00  0.00    -0.643 OA
ENDBRANCH  10  12
ENDBRANCH   1   2
BRANCH   1  15
ATOM     15  C   UNL d   1       5.287   1.208   0.089  0.00  0.00     0.031 C 
BRANCH  15  16
ATOM     16  C   UNL d   1       4.029   1.473  -0.696  0.00  0.00     0.176 C 
BRANCH  16  17
ATOM     17  O   UNL d   1       2.970   2.337  -0.180  0.00  0.00    -0.351 OA
BRANCH  17  18
ATOM     18  C   UNL d   1       2.464   2.245   1.091  0.00  0.00     0.068 C 
ATOM     19  C   UNL d   1       1.098   2.221   1.375  0.00  0.00     0.037 C 
ATOM     20  C   UNL d   1       0.639   2.122   2.716  0.00  0.00     0.019 C 
ATOM     21  C   UNL d   1       1.530   1.827   3.754  0.00  0.00     0.048 C 
ATOM     22  C   UNL d   1       2.878   1.893   3.452  0.00  0.00     0.019 C 
ATOM     23  C   UNL d   1       3.288   2.336   2.189  0.00  0.00     0.037 C 
BRANCH  21  24
ATOM     24  C   UNL d   1       1.096   1.563   5.169  0.00  0.00     0.417 C 
ATOM     25  F   UNL d   1       0.595   2.688   5.760  0.00  0.00    -0.166 F 
ATOM     26  F   UNL d   1       0.129   0.615   5.302  0.00  0.00    -0.166 F 
ATOM     27  F   UNL d   1       2.114   1.162   5.993  0.00  0.00    -0.166 F 
ENDBRANCH  21  24
ENDBRANCH  17  18
ENDBRANCH  16  17
ENDBRANCH  15  16
ENDBRANCH   1  15
TORSDOF 7
