REMARK  6 active torsions:
REMARK  status: ('A' for Active; 'I' for Inactive)
REMARK    1  A    between atoms: C_4  and  O_5 
REMARK    2  A    between atoms: O_5  and  C_6 
REMARK    3  A    between atoms: C_6  and  C_7 
REMARK    4  A    between atoms: C_7  and  C_8 
REMARK    5  A    between atoms: C_8  and  C_9 
REMARK    6  A    between atoms: C_10  and  C_11 
ROOT
ATOM      1  C   UNL d   1       2.952   2.713  -1.286  0.00  0.00     0.044 C 
ENDROOT
BRANCH   1   2
ATOM      2  C   UNL d   1       4.333   2.083  -1.303  0.00  0.00     0.031 C 
BRANCH   2   3
ATOM      3  C   UNL d   1       4.493   1.046  -0.175  0.00  0.00     0.176 C 
BRANCH   3   4
ATOM      4  O   UNL d   1       3.809  -0.244  -0.398  0.00  0.00    -0.351 OA
BRANCH   4   5
ATOM      5  C   UNL d   1       2.436  -0.370  -0.492  0.00  0.00     0.069 A 
ATOM      6  C   UNL d   1       1.559   0.695  -0.424  0.00  0.00     0.045 A 
ATOM      7  C   UNL d   1       0.176   0.928  -0.371  0.00  0.00    -0.037 A 
ATOM      8  C   UNL d   1      -0.450   2.299  -0.165  0.00  0.00     0.050 C 
ATOM      9  C   UNL d   1      -0.474  -0.254  -0.281  0.00  0.00     0.046 A 
ATOM     10  C   UNL d   1       0.301  -1.464  -0.255  0.00  0.00    -0.037 A 
ATOM     11 CL   UNL d   1      -2.189  -0.232  -0.048  0.00  0.00    -0.083 Cl
ATOM     12  C   UNL d   1       1.743  -1.523  -0.363  0.00  0.00     0.045 A 
ATOM     13  C   UNL d   1      -0.413  -2.740  -0.021  0.00  0.00     0.050 C 
ENDBRANCH   4   5
ENDBRANCH   3   4
ENDBRANCH   2   3
ENDBRANCH   1   2
BRANCH   1  14
ATOM     14  C   UNL d   1       2.584   3.295   0.201  0.00  0.00    -0.004 A 
ATOM     15  C   UNL d   1       2.177   2.831   1.574  0.00  0.00     0.159 A 
ATOM     16  O   UNL d   1       2.055   3.962   2.326  0.00  0.00    -0.302 OA
ATOM     17  C   UNL d   1       2.341   5.020   1.590  0.00  0.00     0.087 A 
ATOM     18  C   UNL d   1       2.362   6.285   2.115  0.00  0.00     0.038 A 
ATOM     19  C   UNL d   1       2.617   4.705   0.286  0.00  0.00     0.007 A 
ATOM     20  C   UNL d   1       2.675   7.292   1.212  0.00  0.00     0.003 A 
ATOM     21  C   UNL d   1       2.926   7.025  -0.139  0.00  0.00     0.001 A 
ATOM     22  C   UNL d   1       2.890   5.726  -0.629  0.00  0.00     0.015 A 
BRANCH  15  23
ATOM     23  C   UNL d   1       1.820   1.517   2.437  0.00  0.00     0.234 C 
ATOM     24  O   UNL d   1       1.968   0.335   2.064  0.00  0.00    -0.642 OA
ATOM     25  O   UNL d   1       1.374   1.777   3.627  0.00  0.00    -0.642 OA
ENDBRANCH  15  23
ENDBRANCH   1  14
TORSDOF 6
