REMARK  7 active torsions:
REMARK  status: ('A' for Active; 'I' for Inactive)
REMARK    1  A    between atoms: C_2  and  CA_4 
REMARK    2  A    between atoms: C_12  and  C_13 
REMARK    3  A    between atoms: C_13  and  C_14 
REMARK    4  A    between atoms: C_14  and  C_15 
REMARK    5  A    between atoms: C_15  and  O_16 
REMARK    6  A    between atoms: O_16  and  C_17 
REMARK    7  A    between atoms: C_21  and  C_22 
ROOT
ATOM      1  C   UNL d   1       5.385   0.980   0.843  0.00  0.00     0.044 C 
ENDROOT
BRANCH   1   2
ATOM      2  C   UNL d   1       4.366  -0.022   1.454  0.00  0.00    -0.012 C 
ATOM      3  C   UNL d   1       4.689  -0.595   2.759  0.00  0.00    -0.001 A 
ATOM      4  C   UNL d   1       5.718  -0.361   3.704  0.00  0.00     0.014 A 
ATOM      5  C   UNL d   1       3.783  -1.609   3.036  0.00  0.00     0.043 A 
ATOM      6  C   UNL d   1       5.839  -1.178   4.833  0.00  0.00     0.001 A 
ATOM      7  C   UNL d   1       4.956  -2.232   5.032  0.00  0.00     0.002 A 
ATOM      8  C   UNL d   1       3.909  -2.468   4.136  0.00  0.00     0.030 A 
ATOM      9  N   UNL d   1       2.829  -1.556   2.063  0.00  0.00    -0.350 N 
ATOM     10  CA  UNL d   1       3.074  -0.556   1.141  0.00  0.00     0.117 C 
ATOM     11  H   UNL d   1       2.022  -2.156   1.973  0.00  0.00     0.166 HD
BRANCH  10  12
ATOM     12  C   UNL d   1       1.918  -0.424   0.143  0.00  0.00     0.227 C 
ATOM     13  O   UNL d   1       0.768  -0.437   0.654  0.00  0.00    -0.643 OA
ATOM     14  OXT UNL d   1       2.114  -0.490  -1.127  0.00  0.00    -0.643 OA
ENDBRANCH  10  12
ENDBRANCH   1   2
BRANCH   1  15
ATOM     15  C   UNL d   1       5.680   0.954  -0.609  0.00  0.00     0.031 C 
BRANCH  15  16
ATOM     16  C   UNL d   1       4.312   0.975  -1.275  0.00  0.00     0.176 C 
BRANCH  16  17
ATOM     17  O   UNL d   1       3.336   2.082  -1.017  0.00  0.00    -0.351 OA
BRANCH  17  18
ATOM     18  C   UNL d   1       2.665   2.482   0.132  0.00  0.00     0.069 A 
ATOM     19  C   UNL d   1       1.315   2.812   0.133  0.00  0.00     0.037 A 
ATOM     20  C   UNL d   1       0.718   3.455   1.271  0.00  0.00     0.004 A 
ATOM     21  C   UNL d   1       1.417   3.684   2.478  0.00  0.00     0.016 A 
ATOM     22  C   UNL d   1       2.729   3.309   2.536  0.00  0.00     0.050 A 
ATOM     23  C   UNL d   1       3.256   2.822   1.346  0.00  0.00     0.052 A 
BRANCH  22  24
ATOM     24  C   UNL d   1       3.747   3.506   3.650  0.00  0.00     0.417 C 
ATOM     25  F   UNL d   1       3.978   4.829   3.889  0.00  0.00    -0.166 F 
ATOM     26  F   UNL d   1       3.418   2.944   4.840  0.00  0.00    -0.166 F 
ATOM     27  F   UNL d   1       5.006   3.008   3.377  0.00  0.00    -0.166 F 
ENDBRANCH  22  24
ENDBRANCH  17  18
ENDBRANCH  16  17
ENDBRANCH  15  16
ENDBRANCH   1  15
TORSDOF 7
