REMARK  6 active torsions:
REMARK  status: ('A' for Active; 'I' for Inactive)
REMARK    1  A    between atoms: C_4  and  O_5 
REMARK    2  A    between atoms: O_5  and  C_6 
REMARK    3  A    between atoms: C_6  and  C_7 
REMARK    4  A    between atoms: C_7  and  C_8 
REMARK    5  A    between atoms: C_8  and  C_9 
REMARK    6  A    between atoms: CA_10  and  C_11 
ROOT
ATOM      1  C   UNL d   1      -2.302   3.300  -0.109  0.00  0.00    -0.012 A 
ATOM      2  CA  UNL d   1      -2.394   4.655  -0.314  0.00  0.00     0.117 A 
ATOM      3  N   UNL d   1      -1.958   4.945  -1.587  0.00  0.00    -0.350 N 
ATOM      4  C   UNL d   1      -1.565   3.835  -2.317  0.00  0.00     0.045 A 
ATOM      5  C   UNL d   1      -1.057   3.669  -3.644  0.00  0.00     0.054 C 
ATOM      6  C   UNL d   1      -0.703   2.394  -4.147  0.00  0.00     0.036 C 
ATOM      7 CL   UNL d   1      -0.128   2.163  -5.754  0.00  0.00    -0.084 Cl
ATOM      8  C   UNL d   1      -0.872   1.278  -3.388  0.00  0.00     0.025 C 
ATOM      9  C   UNL d   1      -1.492   1.463  -2.163  0.00  0.00     0.016 C 
ATOM     10  C   UNL d   1      -1.807   2.738  -1.504  0.00  0.00    -0.001 A 
ATOM     11  H   UNL d   1      -1.973   5.895  -1.925  0.00  0.00     0.166 HD
ENDROOT
BRANCH   1  12
ATOM     12  C   UNL d   1      -2.742   2.669   1.331  0.00  0.00     0.044 C 
BRANCH  12  13
ATOM     13  C   UNL d   1      -4.167   2.127   1.248  0.00  0.00     0.031 C 
BRANCH  13  14
ATOM     14  C   UNL d   1      -4.378   1.149   0.063  0.00  0.00     0.176 C 
BRANCH  14  15
ATOM     15  O   UNL d   1      -3.792  -0.219   0.173  0.00  0.00    -0.351 OA
BRANCH  15  16
ATOM     16  C   UNL d   1      -2.443  -0.476   0.312  0.00  0.00     0.069 A 
ATOM     17  C   UNL d   1      -1.495   0.523   0.390  0.00  0.00     0.045 A 
ATOM     18  C   UNL d   1      -0.091   0.645   0.369  0.00  0.00    -0.038 A 
ATOM     19  C   UNL d   1       0.646   1.982   0.222  0.00  0.00     0.050 C 
ATOM     20  C   UNL d   1       0.466  -0.585   0.226  0.00  0.00     0.040 A 
ATOM     21  C   UNL d   1      -0.390  -1.726   0.126  0.00  0.00     0.027 A 
ATOM     22 CL   UNL d   1       2.164  -0.727   0.008  0.00  0.00    -0.084 Cl
ATOM     23  C   UNL d   1      -1.831  -1.680   0.165  0.00  0.00     0.038 A 
ENDBRANCH  15  16
ENDBRANCH  14  15
ENDBRANCH  13  14
ENDBRANCH  12  13
ENDBRANCH   1  12
BRANCH   2  24
ATOM     24  C   UNL d   1      -2.932   5.634   0.664  0.00  0.00     0.227 C 
ATOM     25  O   UNL d   1      -3.296   5.260   1.800  0.00  0.00    -0.643 OA
ATOM     26  OXT UNL d   1      -3.000   6.831   0.206  0.00  0.00    -0.643 OA
ENDBRANCH   2  24
TORSDOF 6
