REMARK  6 active torsions:
REMARK  status: ('A' for Active; 'I' for Inactive)
REMARK    1  A    between atoms: C_2  and  CA_4 
REMARK    2  A    between atoms: C_12  and  C_13 
REMARK    3  A    between atoms: C_13  and  C_14 
REMARK    4  A    between atoms: C_14  and  C_15 
REMARK    5  A    between atoms: C_15  and  O_16 
REMARK    6  A    between atoms: O_16  and  C_17 
ROOT
ATOM      1  CA  UNL d   1       3.019   1.459  -0.026  0.00  0.00     0.117 C 
ATOM      2  N   UNL d   1       2.727   2.740   0.368  0.00  0.00    -0.350 N 
ATOM      3  C   UNL d   1       3.616   3.645  -0.141  0.00  0.00     0.043 A 
ATOM      4  C   UNL d   1       3.677   5.027  -0.012  0.00  0.00     0.030 A 
ATOM      5  C   UNL d   1       4.657   5.703  -0.750  0.00  0.00     0.002 A 
ATOM      6  C   UNL d   1       5.525   5.029  -1.604  0.00  0.00     0.001 A 
ATOM      7  C   UNL d   1       5.469   3.642  -1.691  0.00  0.00     0.014 A 
ATOM      8  C   UNL d   1       4.533   2.938  -0.896  0.00  0.00    -0.001 A 
ATOM      9  C   UNL d   1       4.269   1.547  -0.680  0.00  0.00    -0.012 C 
ATOM     10  H   UNL d   1       1.907   2.923   0.926  0.00  0.00     0.166 HD
ENDROOT
BRANCH   9  11
ATOM     11  C   UNL d   1       5.079   0.581  -1.468  0.00  0.00     0.044 C 
BRANCH  11  12
ATOM     12  C   UNL d   1       5.607  -0.710  -0.921  0.00  0.00     0.031 C 
BRANCH  12  13
ATOM     13  C   UNL d   1       4.413  -1.497  -0.428  0.00  0.00     0.176 C 
BRANCH  13  14
ATOM     14  O   UNL d   1       3.474  -2.036  -1.435  0.00  0.00    -0.351 OA
BRANCH  14  15
ATOM     15  C   UNL d   1       2.704  -1.305  -2.330  0.00  0.00     0.068 C 
ATOM     16  C   UNL d   1       1.310  -1.296  -2.252  0.00  0.00     0.037 C 
ATOM     17  C   UNL d   1       0.539  -0.500  -3.134  0.00  0.00     0.003 C 
ATOM     18  C   UNL d   1       1.154   0.431  -3.965  0.00  0.00     0.000 C 
ATOM     19  C   UNL d   1       2.530   0.400  -4.074  0.00  0.00     0.003 C 
ATOM     20  C   UNL d   1       3.247  -0.623  -3.432  0.00  0.00     0.037 C 
ENDBRANCH  14  15
ENDBRANCH  13  14
ENDBRANCH  12  13
ENDBRANCH  11  12
ENDBRANCH   9  11
BRANCH   1  21
ATOM     21  C   UNL d   1       1.933   0.454   0.312  0.00  0.00     0.227 C 
ATOM     22  O   UNL d   1       0.754   0.868   0.146  0.00  0.00    -0.643 OA
ATOM     23  OXT UNL d   1       2.205  -0.653   0.899  0.00  0.00    -0.643 OA
ENDBRANCH   1  21
TORSDOF 6
