REMARK  6 active torsions:
REMARK  status: ('A' for Active; 'I' for Inactive)
REMARK    1  A    between atoms: C_2  and  CA_4 
REMARK    2  A    between atoms: C_12  and  C_13 
REMARK    3  A    between atoms: C_13  and  C_14 
REMARK    4  A    between atoms: C_14  and  C_15 
REMARK    5  A    between atoms: C_15  and  O_16 
REMARK    6  A    between atoms: O_16  and  C_17 
ROOT
ATOM      1  C   UNL d   1       5.058   0.696  -1.445  0.00  0.00     0.044 C 
ENDROOT
BRANCH   1   2
ATOM      2  C   UNL d   1       4.225   1.592  -0.603  0.00  0.00    -0.012 C 
ATOM      3  C   UNL d   1       4.497   2.990  -0.754  0.00  0.00    -0.001 A 
ATOM      4  C   UNL d   1       5.440   3.716  -1.524  0.00  0.00     0.014 A 
ATOM      5  C   UNL d   1       3.581   3.668   0.024  0.00  0.00     0.043 A 
ATOM      6  C   UNL d   1       5.504   5.096  -1.397  0.00  0.00     0.001 A 
ATOM      7  C   UNL d   1       4.636   5.743  -0.525  0.00  0.00     0.002 A 
ATOM      8  C   UNL d   1       3.650   5.048   0.192  0.00  0.00     0.030 A 
ATOM      9  N   UNL d   1       2.690   2.743   0.498  0.00  0.00    -0.350 N 
ATOM     10  CA  UNL d   1       2.978   1.476   0.047  0.00  0.00     0.117 C 
ATOM     11  H   UNL d   1       1.871   2.907   1.062  0.00  0.00     0.166 HD
BRANCH  10  12
ATOM     12  C   UNL d   1       1.892   0.450   0.328  0.00  0.00     0.227 C 
ATOM     13  O   UNL d   1       0.717   0.832   0.083  0.00  0.00    -0.643 OA
ATOM     14  OXT UNL d   1       2.156  -0.632   0.965  0.00  0.00    -0.643 OA
ENDBRANCH  10  12
ENDBRANCH   1   2
BRANCH   1  15
ATOM     15  C   UNL d   1       5.499  -0.654  -0.953  0.00  0.00     0.031 C 
BRANCH  15  16
ATOM     16  C   UNL d   1       4.332  -1.442  -0.418  0.00  0.00     0.176 C 
BRANCH  16  17
ATOM     17  O   UNL d   1       3.318  -1.980  -1.327  0.00  0.00    -0.351 OA
BRANCH  17  18
ATOM     18  C   UNL d   1       2.687  -1.258  -2.314  0.00  0.00     0.069 C 
ATOM     19  C   UNL d   1       3.399  -0.659  -3.336  0.00  0.00     0.037 C 
ATOM     20  C   UNL d   1       2.845   0.396  -4.068  0.00  0.00     0.015 C 
ATOM     21  C   UNL d   1       1.486   0.436  -4.251  0.00  0.00    -0.026 A 
ATOM     22  C   UNL d   1       0.974   1.239  -5.278  0.00  0.00     0.012 A 
ATOM     23  C   UNL d   1       0.683  -0.442  -3.494  0.00  0.00    -0.023 A 
ATOM     24  C   UNL d   1      -0.344   1.077  -5.676  0.00  0.00     0.001 A 
ATOM     25  C   UNL d   1      -1.161   0.189  -4.978  0.00  0.00     0.001 A 
ATOM     26  C   UNL d   1      -0.670  -0.525  -3.870  0.00  0.00     0.012 A 
ATOM     27  C   UNL d   1       1.295  -1.207  -2.445  0.00  0.00     0.049 C 
ENDBRANCH  17  18
ENDBRANCH  16  17
ENDBRANCH  15  16
ENDBRANCH   1  15
TORSDOF 6
