REMARK  6 active torsions:
REMARK  status: ('A' for Active; 'I' for Inactive)
REMARK    1  A    between atoms: C_4  and  O_5 
REMARK    2  A    between atoms: O_5  and  C_6 
REMARK    3  A    between atoms: C_6  and  C_7 
REMARK    4  A    between atoms: C_7  and  C_8 
REMARK    5  A    between atoms: C_8  and  C_9 
REMARK    6  A    between atoms: C_10  and  C_11 
ROOT
ATOM      1  C   UNL d   1       2.559   3.250   0.265  0.00  0.00    -0.022 A 
ATOM      2  C   UNL d   1       2.144   2.672   1.591  0.00  0.00     0.089 A 
ATOM      3  S   UNL d   1       1.873   3.944   2.689  0.00  0.00    -0.080 SA
ATOM      4  C   UNL d   1       2.332   5.136   1.626  0.00  0.00     0.038 A 
ATOM      5  C   UNL d   1       2.428   6.468   1.986  0.00  0.00     0.052 A 
ATOM      6 CL   UNL d   1       2.137   6.984   3.608  0.00  0.00    -0.083 Cl
ATOM      7  C   UNL d   1       2.797   7.378   1.016  0.00  0.00     0.025 A 
ATOM      8  C   UNL d   1       3.031   6.979  -0.291  0.00  0.00     0.003 A 
ATOM      9  C   UNL d   1       2.929   5.643  -0.644  0.00  0.00     0.013 A 
ATOM     10  C   UNL d   1       2.608   4.687   0.348  0.00  0.00    -0.009 A 
ENDROOT
BRANCH   1  11
ATOM     11  C   UNL d   1       2.959   2.700  -1.292  0.00  0.00     0.043 C 
BRANCH  11  12
ATOM     12  C   UNL d   1       4.344   2.083  -1.311  0.00  0.00     0.031 C 
BRANCH  12  13
ATOM     13  C   UNL d   1       4.498   1.035  -0.196  0.00  0.00     0.176 C 
BRANCH  13  14
ATOM     14  O   UNL d   1       3.814  -0.257  -0.444  0.00  0.00    -0.351 OA
BRANCH  14  15
ATOM     15  C   UNL d   1       2.440  -0.392  -0.572  0.00  0.00     0.069 A 
ATOM     16  C   UNL d   1       1.557   0.672  -0.510  0.00  0.00     0.045 A 
ATOM     17  C   UNL d   1       0.175   0.915  -0.428  0.00  0.00    -0.037 A 
ATOM     18  C   UNL d   1      -0.447   2.288  -0.197  0.00  0.00     0.050 C 
ATOM     19  C   UNL d   1      -0.474  -0.265  -0.314  0.00  0.00     0.046 A 
ATOM     20  C   UNL d   1       0.302  -1.477  -0.289  0.00  0.00    -0.037 A 
ATOM     21 CL   UNL d   1      -2.183  -0.236  -0.041  0.00  0.00    -0.083 Cl
ATOM     22  C   UNL d   1       1.746  -1.543  -0.417  0.00  0.00     0.045 A 
ATOM     23  C   UNL d   1      -0.414  -2.747  -0.025  0.00  0.00     0.050 C 
ENDBRANCH  14  15
ENDBRANCH  13  14
ENDBRANCH  12  13
ENDBRANCH  11  12
ENDBRANCH   1  11
BRANCH   2  24
ATOM     24  C   UNL d   1       1.808   1.308   2.403  0.00  0.00     0.217 C 
ATOM     25  O   UNL d   1       1.352   1.432   3.573  0.00  0.00    -0.643 OA
ATOM     26  O   UNL d   1       2.016   0.128   1.938  0.00  0.00    -0.643 OA
ENDBRANCH   2  24
TORSDOF 6
