REMARK  6 active torsions:
REMARK  status: ('A' for Active; 'I' for Inactive)
REMARK    1  A    between atoms: C_4  and  O_5 
REMARK    2  A    between atoms: O_5  and  C_6 
REMARK    3  A    between atoms: C_6  and  C_7 
REMARK    4  A    between atoms: C_7  and  C_8 
REMARK    5  A    between atoms: C_8  and  C_9 
REMARK    6  A    between atoms: C_10  and  C_11 
ROOT
ATOM      1  C   UNL d   1       2.565   3.248   0.212  0.00  0.00    -0.021 A 
ATOM      2  C   UNL d   1       2.152   2.695   1.568  0.00  0.00     0.089 A 
ATOM      3  S   UNL d   1       1.899   3.987   2.644  0.00  0.00    -0.082 SA
ATOM      4  C   UNL d   1       2.353   5.135   1.537  0.00  0.00     0.018 A 
ATOM      5  C   UNL d   1       2.432   6.453   1.950  0.00  0.00     0.020 A 
ATOM      6  C   UNL d   1       2.796   7.402   1.030  0.00  0.00     0.003 A 
ATOM      7  C   UNL d   1       3.038   7.050  -0.279  0.00  0.00     0.025 A 
ATOM      8  C   UNL d   1       2.957   5.726  -0.682  0.00  0.00     0.046 A 
ATOM      9 CL   UNL d   1       3.335   5.467  -2.338  0.00  0.00    -0.083 Cl
ATOM     10  C   UNL d   1       2.634   4.700   0.252  0.00  0.00     0.011 A 
ENDROOT
BRANCH   1  11
ATOM     11  C   UNL d   1       2.948   2.625  -1.297  0.00  0.00     0.043 C 
BRANCH  11  12
ATOM     12  C   UNL d   1       4.349   2.062  -1.315  0.00  0.00     0.031 C 
BRANCH  12  13
ATOM     13  C   UNL d   1       4.503   1.023  -0.192  0.00  0.00     0.176 C 
BRANCH  13  14
ATOM     14  O   UNL d   1       3.812  -0.269  -0.427  0.00  0.00    -0.351 OA
BRANCH  14  15
ATOM     15  C   UNL d   1       2.437  -0.402  -0.549  0.00  0.00     0.069 A 
ATOM     16  C   UNL d   1       1.548   0.657  -0.471  0.00  0.00     0.045 A 
ATOM     17  C   UNL d   1       0.169   0.910  -0.412  0.00  0.00    -0.037 A 
ATOM     18  C   UNL d   1      -0.449   2.284  -0.191  0.00  0.00     0.050 C 
ATOM     19  C   UNL d   1      -0.480  -0.270  -0.311  0.00  0.00     0.046 A 
ATOM     20  C   UNL d   1       0.297  -1.483  -0.286  0.00  0.00    -0.037 A 
ATOM     21 CL   UNL d   1      -2.189  -0.240  -0.043  0.00  0.00    -0.083 Cl
ATOM     22  C   UNL d   1       1.743  -1.552  -0.409  0.00  0.00     0.045 A 
ATOM     23  C   UNL d   1      -0.418  -2.752  -0.025  0.00  0.00     0.050 C 
ENDBRANCH  14  15
ENDBRANCH  13  14
ENDBRANCH  12  13
ENDBRANCH  11  12
ENDBRANCH   1  11
BRANCH   2  24
ATOM     24  C   UNL d   1       1.810   1.337   2.409  0.00  0.00     0.217 C 
ATOM     25  O   UNL d   1       1.357   1.484   3.578  0.00  0.00    -0.643 OA
ATOM     26  O   UNL d   1       2.010   0.146   1.965  0.00  0.00    -0.643 OA
ENDBRANCH   2  24
TORSDOF 6
