REMARK  6 active torsions:
REMARK  status: ('A' for Active; 'I' for Inactive)
REMARK    1  A    between atoms: C_4  and  O_5 
REMARK    2  A    between atoms: O_5  and  C_6 
REMARK    3  A    between atoms: C_6  and  C_7 
REMARK    4  A    between atoms: C_7  and  C_8 
REMARK    5  A    between atoms: C_8  and  C_9 
REMARK    6  A    between atoms: CA_10  and  C_11 
ROOT
ATOM      1  C   UNL d   1      -2.303   3.282  -0.098  0.00  0.00    -0.012 A 
ATOM      2  CA  UNL d   1      -2.382   4.636  -0.322  0.00  0.00     0.117 A 
ATOM      3  N   UNL d   1      -1.951   4.898  -1.607  0.00  0.00    -0.350 N 
ATOM      4  C   UNL d   1      -1.580   3.767  -2.322  0.00  0.00     0.043 A 
ATOM      5  C   UNL d   1      -1.093   3.549  -3.651  0.00  0.00     0.030 C 
ATOM      6  C   UNL d   1      -0.752   2.257  -4.134  0.00  0.00     0.002 C 
ATOM      7  C   UNL d   1      -0.916   1.167  -3.340  0.00  0.00     0.001 C 
ATOM      8  C   UNL d   1      -1.513   1.402  -2.114  0.00  0.00     0.014 C 
ATOM      9  C   UNL d   1      -1.819   2.692  -1.481  0.00  0.00    -0.001 A 
ATOM     10  H   UNL d   1      -1.956   5.840  -1.964  0.00  0.00     0.166 HD
ENDROOT
BRANCH   1  11
ATOM     11  C   UNL d   1      -2.751   2.673   1.347  0.00  0.00     0.044 C 
BRANCH  11  12
ATOM     12  C   UNL d   1      -4.174   2.131   1.257  0.00  0.00     0.031 C 
BRANCH  12  13
ATOM     13  C   UNL d   1      -4.376   1.146   0.075  0.00  0.00     0.176 C 
BRANCH  13  14
ATOM     14  O   UNL d   1      -3.789  -0.223   0.199  0.00  0.00    -0.351 OA
BRANCH  14  15
ATOM     15  C   UNL d   1      -2.441  -0.484   0.359  0.00  0.00     0.069 A 
ATOM     16  C   UNL d   1      -1.490   0.513   0.455  0.00  0.00     0.045 A 
ATOM     17  C   UNL d   1      -0.086   0.638   0.413  0.00  0.00    -0.038 A 
ATOM     18  C   UNL d   1       0.647   1.978   0.243  0.00  0.00     0.050 C 
ATOM     19  C   UNL d   1       0.469  -0.589   0.247  0.00  0.00     0.040 A 
ATOM     20  C   UNL d   1      -0.388  -1.730   0.138  0.00  0.00     0.027 A 
ATOM     21 CL   UNL d   1       2.164  -0.728   0.004  0.00  0.00    -0.084 Cl
ATOM     22  C   UNL d   1      -1.830  -1.685   0.185  0.00  0.00     0.038 A 
ENDBRANCH  14  15
ENDBRANCH  13  14
ENDBRANCH  12  13
ENDBRANCH  11  12
ENDBRANCH   1  11
BRANCH   2  23
ATOM     23  C   UNL d   1      -2.906   5.626   0.657  0.00  0.00     0.227 C 
ATOM     24  O   UNL d   1      -3.266   5.260   1.798  0.00  0.00    -0.643 OA
ATOM     25  OXT UNL d   1      -2.970   6.824   0.202  0.00  0.00    -0.643 OA
ENDBRANCH   2  23
TORSDOF 6
