REMARK  4 active torsions:
REMARK  status: ('A' for Active; 'I' for Inactive)
REMARK    1  A    between atoms: C8_5  and  C16_13 
REMARK    2  A    between atoms: C16_13  and  O3_21 
REMARK    3  A    between atoms: C19_14  and  C17_22 
REMARK    4  A    between atoms: N1_18  and  C17_22 
ROOT
ATOM      1  C1  LOD d 401     -32.196 -10.822 -16.962  0.00  0.00     0.024 A 
ATOM      2  C2  LOD d 401     -33.421 -11.013 -17.593  0.00  0.00     0.034 A 
ATOM      3  C3  LOD d 401     -33.616 -10.735 -18.962  0.00  0.00     0.031 A 
ATOM      4  C7  LOD d 401     -26.435  -6.947 -20.577  0.00  0.00     0.050 A 
ATOM      5  C8  LOD d 401     -25.093  -7.187 -20.187  0.00  0.00     0.040 A 
ATOM      6  C9  LOD d 401     -24.775  -8.328 -19.430  0.00  0.00     0.021 A 
ATOM      7  C10 LOD d 401     -25.789  -9.217 -19.078  0.00  0.00     0.040 A 
ATOM      8  C11 LOD d 401     -28.918 -10.393 -20.140  0.00  0.00     0.192 C 
ATOM      9  C12 LOD d 401     -29.932  -8.140 -19.752  0.00  0.00     0.139 C 
ATOM     10  C13 LOD d 401     -27.487  -7.833 -20.216  0.00  0.00     0.065 A 
ATOM     11  C14 LOD d 401     -27.124  -8.999 -19.465  0.00  0.00     0.095 A 
ATOM     12  C15 LOD d 401     -30.225  -9.593 -20.071  0.00  0.00     0.026 C 
ATOM     13  C22 LOD d 401     -32.470  -9.935 -21.111  0.00  0.00     0.040 C 
ATOM     14  N1  LOD d 401     -28.833  -7.505 -20.463  0.00  0.00    -0.377 N 
ATOM     15  O1  LOD d 401     -28.009 -10.002 -19.117  0.00  0.00    -0.348 OA
ATOM     16  C4  LOD d 401     -32.503 -10.262 -19.665  0.00  0.00    -0.049 A 
ATOM     17  C5  LOD d 401     -31.262 -10.066 -19.062  0.00  0.00    -0.039 A 
ATOM     18  C6  LOD d 401     -31.097 -10.342 -17.695  0.00  0.00     0.010 A 
ATOM     19 CL1  LOD d 401     -34.715 -11.652 -16.631  0.00  0.00    -0.084 Cl
ATOM     20  C23 LOD d 401     -30.962  -9.818 -21.409  0.00  0.00     0.023 C 
ENDROOT
BRANCH  14  21
ATOM     21  C17 LOD d 401     -29.222  -6.429 -21.368  0.00  0.00     0.127 C 
BRANCH  21  22
ATOM     22  C19 LOD d 401     -29.046  -5.061 -20.657  0.00  0.00     0.003 C 
ATOM     23  C20 LOD d 401     -29.632  -3.874 -21.446  0.00  0.00     0.006 C 
ATOM     24  C21 LOD d 401     -30.085  -3.259 -20.084  0.00  0.00     0.001 C 
ATOM     25  C18 LOD d 401     -30.018  -4.705 -19.498  0.00  0.00     0.006 C 
ENDBRANCH  21  22
ENDBRANCH  14  21
BRANCH   5  26
ATOM     26  C16 LOD d 401     -24.011  -6.267 -20.545  0.00  0.00     0.176 C 
ATOM     27  O2  LOD d 401     -22.934  -6.340 -20.041  0.00  0.00    -0.646 OA
BRANCH  26  28
ATOM     28  O3  LOD d 401     -24.331  -5.340 -21.481  0.00  0.00    -0.773 OA
ATOM     29  H   LOD d 401     -25.193  -5.323 -21.848  0.00  0.00     0.167 HD
ENDBRANCH  26  28
ENDBRANCH   5  26
TORSDOF 4
