lig_43
                    3D
 Schrodinger Suite 2022-3.
 44 47  0  0  1  0            999 V2000
   60.0563  -34.0198   31.0356 H   0  0  0  0  0  0
   60.6986  -33.6934   30.2362 C   0  0  0  0  0  0
   60.3835  -34.0656   28.9189 C   0  0  0  0  0  0
   61.2357  -33.6962   27.8643 C   0  0  0  0  0  0
   62.4164  -32.9791   28.1413 C   0  0  0  0  0  0
   63.3339  -32.7283   27.1102 C   0  0  0  0  0  0
   64.5768  -32.1295   27.3831 C   0  0  0  0  0  0
   64.8644  -31.6909   28.6984 C   0  0  0  0  0  0
   63.9281  -31.9005   29.7326 C   0  0  0  0  0  0
   62.7177  -32.5753   29.4665 C   0  0  0  0  0  0
   61.8424  -32.9201   30.5139 C   0  0  0  0  0  0
   62.0679  -32.6426   31.5336 H   0  0  0  0  0  0
   64.1692  -31.5930   30.7396 H   0  0  0  0  0  0
   65.8058  -31.2204   28.9412 H   0  0  0  0  0  0
   65.4411  -32.0453   26.3225 O   0  0  0  0  0  0
   66.6182  -31.2723   26.4533 C   0  0  0  0  0  0
   67.2938  -31.7239   27.1797 H   0  0  0  0  0  0
   66.3745  -30.2639   26.7911 H   0  0  0  0  0  0
   67.2672  -31.2107   25.0649 C   0  0  0  0  0  0
   68.0376  -30.4403   25.0679 H   0  0  0  0  0  0
   66.5210  -30.8913   24.3381 H   0  0  0  0  0  0
   67.8769  -32.5465   24.5993 C   0  0  0  0  0  0
   68.1426  -32.4678   23.5450 H   0  0  0  0  0  0
   67.1241  -33.3336   24.6534 H   0  0  0  0  0  0
   69.0929  -32.9170   25.3962 C   0  0  0  0  0  0
   70.3296  -32.3135   25.3168 C   0  0  0  0  0  0
   71.1549  -32.9061   26.2607 N   0  0  0  0  0  0
   70.4914  -33.8904   26.9669 C   0  0  0  0  0  0
   69.1694  -33.9075   26.4365 C   0  0  0  0  0  0
   68.2521  -34.8212   27.0091 C   0  0  0  0  0  0
   68.6356  -35.6842   28.0548 C   0  0  0  0  0  0
   69.9527  -35.6545   28.5525 C   0  0  0  0  0  0
   70.8866  -34.7516   28.0074 C   0  0  0  0  0  0
   71.8951  -34.7162   28.3883 H   0  0  0  0  0  0
   70.2438  -36.3216   29.3512 H   0  0  0  0  0  0
   67.9162  -36.3727   28.4733 H   0  0  0  0  0  0
   67.2374  -34.8537   26.6391 H   0  0  0  0  0  0
   72.1092  -32.5905   26.3734 H   0  0  0  0  0  0
   70.9044  -31.2094   24.5004 C   0  0  0  0  0  0
   72.0519  -30.7933   24.7776 O   0  0  0  0  0  0
   70.2457  -30.6957   23.5676 O   0  5  0  0  0  0
   63.1160  -33.0543   26.1029 H   0  0  0  0  0  0
   61.0048  -34.0015   26.8534 H   0  0  0  0  0  0
   59.4838  -34.6411   28.7397 H   0  0  0  0  0  0
  1  2  1  0  0  0
  2 11  1  0  0  0
  2  3  2  0  0  0
  3  4  1  0  0  0
  3 44  1  0  0  0
  4  5  2  0  0  0
  4 43  1  0  0  0
  5 10  1  0  0  0
  5  6  1  0  0  0
  6  7  2  0  0  0
  6 42  1  0  0  0
  7  8  1  0  0  0
  7 15  1  0  0  0
  8  9  2  0  0  0
  8 14  1  0  0  0
  9 10  1  0  0  0
  9 13  1  0  0  0
 10 11  2  0  0  0
 11 12  1  0  0  0
 15 16  1  0  0  0
 16 17  1  0  0  0
 16 18  1  0  0  0
 16 19  1  0  0  0
 19 20  1  0  0  0
 19 21  1  0  0  0
 19 22  1  0  0  0
 22 23  1  0  0  0
 22 24  1  0  0  0
 22 25  1  0  0  0
 25 29  1  0  0  0
 25 26  2  0  0  0
 26 27  1  0  0  0
 26 39  1  0  0  0
 27 28  1  0  0  0
 27 38  1  0  0  0
 28 33  2  0  0  0
 28 29  1  0  0  0
 29 30  2  0  0  0
 30 31  1  0  0  0
 30 37  1  0  0  0
 31 32  2  0  0  0
 31 36  1  0  0  0
 32 33  1  0  0  0
 32 35  1  0  0  0
 33 34  1  0  0  0
 39 40  2  0  0  0
 39 41  1  0  0  0
M  CHG  1  41  -1
M  END
> <s_m_source_file>
ligprep_mcl1.smi

> <i_m_source_file_index>
19

> <i_lp_mmshare_version>
53161

> <i_f3d_flags>
0

> <s_epik_input>
W2NIXTFbY0hdW2NIXVtjSF1jKGMxMilbY0hdW2NIXWMoW2NIXTIpT1tDSDJdW0NIMl1bQ0gyXWMoYyhbbkhdMylDKD1PKVtPSF0pYyhjMzQpW2NIXVtjSF1bY0hdW2NIXTQ=

> <s_epik_cmdline>
J2VwaWtfcHl0aG9uJywgJy1waHQnLCAnMC4wJywgJy1waCcsICc3LjQnLCAnLXRuJywgJzgnLCAnLW1hJywgJzUwMCcsICctaW1hZScsICc8aW5maWxlLm1hZT4nLCAnLW9tYWUnLCAnPG91dGZpbGUubWFlPic=

> <r_lp_tautomer_probability>
1

> <r_epik_Ionization_Penalty>
  0.0006

> <r_epik_Ionization_Penalty_Charging>
  0.0006

> <r_epik_Ionization_Penalty_Neutral>
  0.0000

> <r_epik_State_Penalty>
 -0.0000

> <r_epik_Charging_Adjusted_Penalty>
0.000566237

> <i_epik_Tot_Q>
-1

> <i_epik_Tot_abs_Q>
1

> <s_lp_Force_Field>
S-OPLS

> <r_lp_Energy>
41.9169

> <b_lp_Chiralities_Consistent>
1

> <s_lp_Variant>
lig_43-1

> <s_i_glide_gridfile>
glide-grid_MCL1-4HW3

> <i_i_glide_lignum>
19

> <i_i_glide_rotatable_bonds>
6

> <r_i_docking_score>
-9.79826239686837

> <r_i_glide_ligand_efficiency>
-0.376856246033399

> <r_i_glide_ligand_efficiency_sa>
-1.11643514601622

> <r_i_glide_ligand_efficiency_ln>
-2.30108977318328

> <r_i_glide_gscore>
-9.79826239686837

> <r_i_glide_lipo>
-5.80891892314523

> <r_i_glide_hbond>
-0.407060779843781

> <r_i_glide_metal>
-0

> <r_i_glide_rewards>
-1.95844403538373

> <r_i_glide_evdw>
-41.7975387573242

> <r_i_glide_ecoul>
-2.95840716362

> <r_i_glide_erotb>
0.960544967154823

> <r_i_glide_esite>
-0.0507456132412436

> <r_i_glide_emodel>
-63.9003983962847

> <r_i_glide_energy>
-44.7559459209442

> <r_i_glide_einternal>
0.158556967973709

> <i_i_glide_confnum>
177

> <i_i_glide_posenum>
12

> <r_i_glide_eff_state_penalty>
-0

> <r_i_glide_rmsd>
0.108036238095667

> <s_glide_core_constrain_type>
snapped_core_restrain

$$$$
lig_56
                    3D
 Schrodinger Suite 2022-3.
 47 49  0  0  1  0            999 V2000
   67.7794  -36.3158   28.5240 H   0  0  0  0  0  0
   68.5193  -35.6583   28.0887 C   0  0  0  0  0  0
   69.8389  -35.6703   28.5718 C   0  0  0  0  0  0
   70.7995  -34.8107   28.0057 C   0  0  0  0  0  0
   70.4361  -33.9467   26.9462 C   0  0  0  0  0  0
   69.1103  -33.9320   26.4352 C   0  0  0  0  0  0
   68.1616  -34.7972   27.0326 C   0  0  0  0  0  0
   67.1432  -34.7951   26.6721 H   0  0  0  0  0  0
   69.0533  -32.9707   25.3786 C   0  0  0  0  0  0
   70.3084  -32.4074   25.2582 C   0  0  0  0  0  0
   71.1546  -33.0054   26.2143 N   0  0  0  0  0  0
   72.5702  -32.7257   26.4267 C   0  0  0  0  0  0
   73.0210  -33.4576   27.0942 H   0  0  0  0  0  0
   73.1071  -32.7625   25.4791 H   0  0  0  0  0  0
   72.6849  -31.7370   26.8701 H   0  0  0  0  0  0
   70.7879  -31.3220   24.3335 C   0  0  0  0  0  0
   70.1418  -31.0542   23.2944 O   0  0  0  0  0  0
   71.8110  -30.6540   24.6002 O   0  5  0  0  0  0
   67.8197  -32.6069   24.5987 C   0  0  0  0  0  0
   67.0730  -33.3975   24.6715 H   0  0  0  0  0  0
   68.0554  -32.5381   23.5354 H   0  0  0  0  0  0
   67.2075  -31.2771   25.0679 C   0  0  0  0  0  0
   66.4415  -30.9752   24.3552 H   0  0  0  0  0  0
   67.9715  -30.4993   25.0441 H   0  0  0  0  0  0
   66.5815  -31.3393   26.4704 C   0  0  0  0  0  0
   66.3258  -30.3300   26.8012 H   0  0  0  0  0  0
   67.2780  -31.7648   27.1938 H   0  0  0  0  0  0
   65.4165  -32.1369   26.3724 O   0  0  0  0  0  0
   64.5470  -32.1806   27.4342 C   0  0  0  0  0  0
   63.2734  -32.7233   27.1780 C   0  0  0  0  0  0
   62.3260  -32.8802   28.2064 C   0  0  0  0  0  0
   62.6460  -32.4455   29.5115 C   0  0  0  0  0  0
   63.9053  -31.8539   29.7774 C   0  0  0  0  0  0
   64.8547  -31.7329   28.7395 C   0  0  0  0  0  0
   65.8198  -31.3030   28.9627 H   0  0  0  0  0  0
   64.2528  -31.3599   31.1675 C   0  0  0  0  0  0
   65.2197  -30.8556   31.1861 H   0  0  0  0  0  0
   64.2922  -32.1952   31.8669 H   0  0  0  0  0  0
   63.5000  -30.6530   31.5176 H   0  0  0  0  0  0
   61.4986  -32.6573   30.7827 Cl  0  0  0  0  0  0
   60.9956  -33.5467   27.9023 C   0  0  0  0  0  0
   60.9692  -33.9316   26.8820 H   0  0  0  0  0  0
   60.8181  -34.3832   28.5801 H   0  0  0  0  0  0
   60.1806  -32.8310   28.0068 H   0  0  0  0  0  0
   63.0409  -33.0610   26.1778 H   0  0  0  0  0  0
   71.8083  -34.8200   28.3849 H   0  0  0  0  0  0
   70.1118  -36.3374   29.3778 H   0  0  0  0  0  0
  1  2  1  0  0  0
  2  7  1  0  0  0
  2  3  2  0  0  0
  3  4  1  0  0  0
  3 47  1  0  0  0
  4  5  2  0  0  0
  4 46  1  0  0  0
  5 11  1  0  0  0
  5  6  1  0  0  0
  6  7  2  0  0  0
  6  9  1  0  0  0
  7  8  1  0  0  0
  9 10  2  0  0  0
  9 19  1  0  0  0
 10 11  1  0  0  0
 10 16  1  0  0  0
 11 12  1  0  0  0
 12 13  1  0  0  0
 12 14  1  0  0  0
 12 15  1  0  0  0
 16 17  2  0  0  0
 16 18  1  0  0  0
 19 20  1  0  0  0
 19 21  1  0  0  0
 19 22  1  0  0  0
 22 23  1  0  0  0
 22 24  1  0  0  0
 22 25  1  0  0  0
 25 26  1  0  0  0
 25 27  1  0  0  0
 25 28  1  0  0  0
 28 29  1  0  0  0
 29 34  1  0  0  0
 29 30  2  0  0  0
 30 31  1  0  0  0
 30 45  1  0  0  0
 31 32  2  0  0  0
 31 41  1  0  0  0
 32 33  1  0  0  0
 32 40  1  0  0  0
 33 34  2  0  0  0
 33 36  1  0  0  0
 34 35  1  0  0  0
 36 37  1  0  0  0
 36 38  1  0  0  0
 36 39  1  0  0  0
 41 42  1  0  0  0
 41 43  1  0  0  0
 41 44  1  0  0  0
M  CHG  1  18  -1
M  END
> <s_m_source_file>
ligprep_mcl1.smi

> <i_m_source_file_index>
31

> <i_lp_mmshare_version>
53161

> <i_f3d_flags>
0

> <s_epik_input>
W2NIXTFbY0hdW2NIXVtjSF1jKGMxMiljKGMobjJbQ0gzXSlDKD1PKVtPSF0pW0NIMl1bQ0gyXVtDSDJdT2MzW2NIXWMoW0NIM10pYyhDbCljKFtjSF0zKVtDSDNd

> <s_epik_cmdline>
J2VwaWtfcHl0aG9uJywgJy1waHQnLCAnMC4wJywgJy1waCcsICc3LjQnLCAnLXRuJywgJzgnLCAnLW1hJywgJzUwMCcsICctaW1hZScsICc8aW5maWxlLm1hZT4nLCAnLW9tYWUnLCAnPG91dGZpbGUubWFlPic=

> <r_lp_tautomer_probability>
1

> <r_epik_Ionization_Penalty>
  0.0099

> <r_epik_Ionization_Penalty_Charging>
  0.0099

> <r_epik_Ionization_Penalty_Neutral>
  0.0000

> <r_epik_State_Penalty>
 -0.0000

> <r_epik_Charging_Adjusted_Penalty>
0.00989628

> <i_epik_Tot_Q>
-1

> <i_epik_Tot_abs_Q>
1

> <s_lp_Force_Field>
S-OPLS

> <r_lp_Energy>
44.3564

> <b_lp_Chiralities_Consistent>
1

> <s_lp_Variant>
lig_56-1

> <s_i_glide_gridfile>
glide-grid_MCL1-4HW3

> <i_i_glide_lignum>
31

> <i_i_glide_rotatable_bonds>
6

> <r_i_docking_score>
-9.73985789915236

> <r_i_glide_ligand_efficiency>
-0.374609919198168

> <r_i_glide_ligand_efficiency_sa>
-1.10978041160572

> <r_i_glide_ligand_efficiency_ln>
-2.28737366853546

> <r_i_glide_gscore>
-9.73985789915236

> <r_i_glide_lipo>
-5.55540823262131

> <r_i_glide_hbond>
-0.398663424286482

> <r_i_glide_metal>
-0

> <r_i_glide_rewards>
-1.82793339894715

> <r_i_glide_evdw>
-45.153491973877

> <r_i_glide_ecoul>
-3.35108757019043

> <r_i_glide_erotb>
0.841857308148048

> <r_i_glide_esite>
-0.0393724172230523

> <r_i_glide_emodel>
-85.4870697840366

> <r_i_glide_energy>
-48.5045795440674

> <r_i_glide_einternal>
3.8269362449646

> <i_i_glide_confnum>
12

> <i_i_glide_posenum>
13

> <r_i_glide_eff_state_penalty>
-0

> <r_i_glide_rmsd>
0.0727343853755301

> <s_glide_core_constrain_type>
snapped_core_restrain

$$$$
lig_47
                    3D
 Schrodinger Suite 2022-3.
 43 46  0  0  1  0            999 V2000
   67.8983  -36.3685   28.4802 H   0  0  0  0  0  0
   68.6173  -35.6753   28.0665 C   0  0  0  0  0  0
   69.9308  -35.6393   28.5742 C   0  0  0  0  0  0
   70.8633  -34.7325   28.0349 C   0  0  0  0  0  0
   70.4718  -33.8754   26.9887 C   0  0  0  0  0  0
   69.1540  -33.8989   26.4486 C   0  0  0  0  0  0
   68.2364  -34.8158   27.0162 C   0  0  0  0  0  0
   67.2256  -34.8532   26.6362 H   0  0  0  0  0  0
   69.0800  -32.9083   25.4077 C   0  0  0  0  0  0
   70.3166  -32.3036   25.3334 C   0  0  0  0  0  0
   71.1375  -32.8914   26.2835 N   0  0  0  0  0  0
   72.0906  -32.5760   26.3995 H   0  0  0  0  0  0
   70.8936  -31.1979   24.5191 C   0  0  0  0  0  0
   72.0301  -30.7680   24.8105 O   0  0  0  0  0  0
   70.2475  -30.7002   23.5697 O   0  5  0  0  0  0
   67.8667  -32.5438   24.6012 C   0  0  0  0  0  0
   68.1370  -32.4704   23.5477 H   0  0  0  0  0  0
   67.1128  -33.3301   24.6554 H   0  0  0  0  0  0
   67.2621  -31.2066   25.0613 C   0  0  0  0  0  0
   68.0334  -30.4356   25.0546 H   0  0  0  0  0  0
   66.5107  -30.8898   24.3382 H   0  0  0  0  0  0
   66.6211  -31.2630   26.4548 C   0  0  0  0  0  0
   67.2943  -31.7090   27.1873 H   0  0  0  0  0  0
   66.3793  -30.2548   26.7828 H   0  0  0  0  0  0
   65.4424  -32.0291   26.3360 O   0  0  0  0  0  0
   64.5787  -32.0928   27.4016 C   0  0  0  0  0  0
   64.8562  -31.6396   28.7133 C   0  0  0  0  0  0
   63.9251  -31.8662   29.7508 C   0  0  0  0  0  0
   62.7320  -32.5850   29.5164 C   0  0  0  0  0  0
   62.4515  -32.9884   28.1837 C   0  0  0  0  0  0
   63.3424  -32.7023   27.1421 C   0  0  0  0  0  0
   63.1293  -33.0540   26.1422 H   0  0  0  0  0  0
   61.3231  -33.7778   27.9116 C   0  0  0  0  0  0
   60.5447  -34.2066   28.9908 C   0  0  0  0  0  0
   60.8866  -33.7684   30.2872 C   0  0  0  0  0  0
   61.9296  -32.9487   30.5417 N   0  0  0  0  0  0
   60.3287  -34.1045   31.1499 H   0  0  0  0  0  0
   59.7142  -34.8695   28.8011 H   0  0  0  0  0  0
   61.1017  -34.1097   26.9067 H   0  0  0  0  0  0
   64.1612  -31.5507   30.7560 H   0  0  0  0  0  0
   65.7906  -31.1504   28.9494 H   0  0  0  0  0  0
   71.8715  -34.6939   28.4204 H   0  0  0  0  0  0
   70.2198  -36.3034   29.3758 H   0  0  0  0  0  0
  1  2  1  0  0  0
  2  7  1  0  0  0
  2  3  2  0  0  0
  3  4  1  0  0  0
  3 43  1  0  0  0
  4  5  2  0  0  0
  4 42  1  0  0  0
  5 11  1  0  0  0
  5  6  1  0  0  0
  6  7  2  0  0  0
  6  9  1  0  0  0
  7  8  1  0  0  0
  9 10  2  0  0  0
  9 16  1  0  0  0
 10 11  1  0  0  0
 10 13  1  0  0  0
 11 12  1  0  0  0
 13 14  2  0  0  0
 13 15  1  0  0  0
 16 17  1  0  0  0
 16 18  1  0  0  0
 16 19  1  0  0  0
 19 20  1  0  0  0
 19 21  1  0  0  0
 19 22  1  0  0  0
 22 23  1  0  0  0
 22 24  1  0  0  0
 22 25  1  0  0  0
 25 26  1  0  0  0
 26 31  1  0  0  0
 26 27  2  0  0  0
 27 28  1  0  0  0
 27 41  1  0  0  0
 28 29  2  0  0  0
 28 40  1  0  0  0
 29 36  1  0  0  0
 29 30  1  0  0  0
 30 31  2  0  0  0
 30 33  1  0  0  0
 31 32  1  0  0  0
 33 34  2  0  0  0
 33 39  1  0  0  0
 34 35  1  0  0  0
 34 38  1  0  0  0
 35 36  2  0  0  0
 35 37  1  0  0  0
M  CHG  1  15  -1
M  END
> <s_m_source_file>
ligprep_mcl1.smi

> <i_m_source_file_index>
23

> <i_lp_mmshare_version>
53161

> <i_f3d_flags>
0

> <s_epik_input>
W2NIXTFbY0hdW2NIXVtjSF1jKGMxMiljKGMoW25IXTIpQyg9TylbT0hdKVtDSDJdW0NIMl1bQ0gyXU9jKFtjSF1bY0hdMylbY0hdYyhjMzQpW2NIXVtjSF1bY0hdbjQ=

> <s_epik_cmdline>
J2VwaWtfcHl0aG9uJywgJy1waHQnLCAnMC4wJywgJy1waCcsICc3LjQnLCAnLXRuJywgJzgnLCAnLW1hJywgJzUwMCcsICctaW1hZScsICc8aW5maWxlLm1hZT4nLCAnLW9tYWUnLCAnPG91dGZpbGUubWFlPic=

> <r_lp_tautomer_probability>
1

> <r_epik_Ionization_Penalty>
  0.0019

> <r_epik_Ionization_Penalty_Charging>
  0.0006

> <r_epik_Ionization_Penalty_Neutral>
  0.0013

> <r_epik_State_Penalty>
 -0.0000

> <r_epik_Charging_Adjusted_Penalty>
0.000566237

> <i_epik_Tot_Q>
-1

> <i_epik_Tot_abs_Q>
1

> <s_lp_Force_Field>
S-OPLS

> <r_lp_Energy>
42.8327

> <b_lp_Chiralities_Consistent>
1

> <s_lp_Variant>
lig_47-1

> <s_i_glide_gridfile>
glide-grid_MCL1-4HW3

> <i_i_glide_lignum>
23

> <i_i_glide_rotatable_bonds>
6

> <r_i_docking_score>
-9.61507376564434

> <r_i_glide_ligand_efficiency>
-0.369810529447859

> <r_i_glide_ligand_efficiency_sa>
-1.09556223835512

> <r_i_glide_ligand_efficiency_ln>
-2.25806852423125

> <r_i_glide_gscore>
-9.61507376564434

> <r_i_glide_lipo>
-5.47830910301058

> <r_i_glide_hbond>
-0.417322253932581

> <r_i_glide_metal>
-0

> <r_i_glide_rewards>
-1.9520481493882

> <r_i_glide_evdw>
-43.8314247131348

> <r_i_glide_ecoul>
-3.2060272693634

> <r_i_glide_erotb>
0.955672098561639

> <r_i_glide_esite>
-0.0505910318133682

> <r_i_glide_emodel>
-59.8412868725011

> <r_i_glide_energy>
-47.0374519824982

> <r_i_glide_einternal>
0.155174925923347

> <i_i_glide_confnum>
4

> <i_i_glide_posenum>
20

> <r_i_glide_eff_state_penalty>
-0

> <r_i_glide_rmsd>
0.114188332930984

> <s_glide_core_constrain_type>
snapped_core_restrain

$$$$
lig_37
                    3D
 Schrodinger Suite 2022-3.
 44 46  0  0  1  0            999 V2000
   68.0448  -36.3835   28.5410 H   0  0  0  0  0  0
   68.7271  -35.6639   28.1110 C   0  0  0  0  0  0
   70.0373  -35.5503   28.6178 C   0  0  0  0  0  0
   70.9219  -34.6054   28.0650 C   0  0  0  0  0  0
   70.4907  -33.7945   26.9977 C   0  0  0  0  0  0
   69.1776  -33.8948   26.4576 C   0  0  0  0  0  0
   68.3047  -34.8431   27.0443 C   0  0  0  0  0  0
   67.2965  -34.9346   26.6665 H   0  0  0  0  0  0
   69.0574  -32.9305   25.3960 C   0  0  0  0  0  0
   70.2660  -32.2760   25.3024 C   0  0  0  0  0  0
   71.1093  -32.7954   26.2724 N   0  0  0  0  0  0
   72.0421  -32.4260   26.3919 H   0  0  0  0  0  0
   70.7891  -31.1732   24.4496 C   0  0  0  0  0  0
   70.1336  -30.7652   23.4635 O   0  0  0  0  0  0
   71.8883  -30.6555   24.7444 O   0  5  0  0  0  0
   67.8242  -32.6290   24.5946 C   0  0  0  0  0  0
   67.1085  -33.4503   24.6619 H   0  0  0  0  0  0
   68.0829  -32.5509   23.5388 H   0  0  0  0  0  0
   67.1526  -31.3202   25.0463 C   0  0  0  0  0  0
   66.3680  -31.0536   24.3371 H   0  0  0  0  0  0
   67.8819  -30.5118   25.0091 H   0  0  0  0  0  0
   66.5439  -31.3809   26.4539 C   0  0  0  0  0  0
   66.2531  -30.3760   26.7665 H   0  0  0  0  0  0
   67.2609  -31.7652   27.1810 H   0  0  0  0  0  0
   65.4067  -32.2229   26.3777 O   0  0  0  0  0  0
   64.5336  -32.2433   27.4347 C   0  0  0  0  0  0
   63.2590  -32.7775   27.1776 C   0  0  0  0  0  0
   62.3051  -32.9128   28.2024 C   0  0  0  0  0  0
   62.6232  -32.4688   29.5066 C   0  0  0  0  0  0
   63.8862  -31.8836   29.7698 C   0  0  0  0  0  0
   64.8409  -31.7834   28.7355 C   0  0  0  0  0  0
   65.8096  -31.3599   28.9552 H   0  0  0  0  0  0
   64.2321  -31.3712   31.1565 C   0  0  0  0  0  0
   65.2014  -30.8713   31.1698 H   0  0  0  0  0  0
   64.2659  -32.1942   31.8699 H   0  0  0  0  0  0
   63.4838  -30.6520   31.4909 H   0  0  0  0  0  0
   61.4703  -32.6540   30.7781 Cl  0  0  0  0  0  0
   60.9703  -33.5636   27.8918 C   0  0  0  0  0  0
   60.9392  -33.9381   26.8678 H   0  0  0  0  0  0
   60.7932  -34.4075   28.5595 H   0  0  0  0  0  0
   60.1583  -32.8463   28.0128 H   0  0  0  0  0  0
   63.0425  -33.1218   26.1769 H   0  0  0  0  0  0
   71.9235  -34.5012   28.4552 H   0  0  0  0  0  0
   70.3579  -36.1843   29.4330 H   0  0  0  0  0  0
  1  2  1  0  0  0
  2  7  1  0  0  0
  2  3  2  0  0  0
  3  4  1  0  0  0
  3 44  1  0  0  0
  4  5  2  0  0  0
  4 43  1  0  0  0
  5 11  1  0  0  0
  5  6  1  0  0  0
  6  7  2  0  0  0
  6  9  1  0  0  0
  7  8  1  0  0  0
  9 10  2  0  0  0
  9 16  1  0  0  0
 10 11  1  0  0  0
 10 13  1  0  0  0
 11 12  1  0  0  0
 13 14  2  0  0  0
 13 15  1  0  0  0
 16 17  1  0  0  0
 16 18  1  0  0  0
 16 19  1  0  0  0
 19 20  1  0  0  0
 19 21  1  0  0  0
 19 22  1  0  0  0
 22 23  1  0  0  0
 22 24  1  0  0  0
 22 25  1  0  0  0
 25 26  1  0  0  0
 26 31  1  0  0  0
 26 27  2  0  0  0
 27 28  1  0  0  0
 27 42  1  0  0  0
 28 29  2  0  0  0
 28 38  1  0  0  0
 29 30  1  0  0  0
 29 37  1  0  0  0
 30 31  2  0  0  0
 30 33  1  0  0  0
 31 32  1  0  0  0
 33 34  1  0  0  0
 33 35  1  0  0  0
 33 36  1  0  0  0
 38 39  1  0  0  0
 38 40  1  0  0  0
 38 41  1  0  0  0
M  CHG  1  15  -1
M  END
> <s_m_source_file>
ligprep_mcl1.smi

> <i_m_source_file_index>
13

> <i_lp_mmshare_version>
53161

> <i_f3d_flags>
0

> <s_epik_input>
W2NIXTFbY0hdW2NIXVtjSF1jKGMxMiljKGMoW25IXTIpQyg9TylbT0hdKVtDSDJdW0NIMl1bQ0gyXU9jM1tjSF1jKFtDSDNdKWMoQ2wpYyhbY0hdMylbQ0gzXQ==

> <s_epik_cmdline>
J2VwaWtfcHl0aG9uJywgJy1waHQnLCAnMC4wJywgJy1waCcsICc3LjQnLCAnLXRuJywgJzgnLCAnLW1hJywgJzUwMCcsICctaW1hZScsICc8aW5maWxlLm1hZT4nLCAnLW9tYWUnLCAnPG91dGZpbGUubWFlPic=

> <r_lp_tautomer_probability>
1

> <r_epik_Ionization_Penalty>
  0.0005

> <r_epik_Ionization_Penalty_Charging>
  0.0005

> <r_epik_Ionization_Penalty_Neutral>
  0.0000

> <r_epik_State_Penalty>
 -0.0000

> <r_epik_Charging_Adjusted_Penalty>
0.000518745

> <i_epik_Tot_Q>
-1

> <i_epik_Tot_abs_Q>
1

> <s_lp_Force_Field>
S-OPLS

> <r_lp_Energy>
32.8043

> <b_lp_Chiralities_Consistent>
1

> <s_lp_Variant>
lig_37-1

> <s_i_glide_gridfile>
glide-grid_MCL1-4HW3

> <i_i_glide_lignum>
13

> <i_i_glide_rotatable_bonds>
6

> <r_i_docking_score>
-9.56234286317792

> <r_i_glide_ligand_efficiency>
-0.382493714527117

> <r_i_glide_ligand_efficiency_sa>
-1.1184184048322

> <r_i_glide_ligand_efficiency_ln>
-2.26656181886478

> <r_i_glide_gscore>
-9.56234286317792

> <r_i_glide_lipo>
-5.48054042755764

> <r_i_glide_hbond>
-0.430091145565846

> <r_i_glide_metal>
-0

> <r_i_glide_rewards>
-1.80544625789785

> <r_i_glide_evdw>
-44.1461029052734

> <r_i_glide_ecoul>
-3.27262115478516

> <r_i_glide_erotb>
0.901815516812407

> <r_i_glide_esite>
-0.0498822304875442

> <r_i_glide_emodel>
-82.9523709478391

> <r_i_glide_energy>
-47.4187240600586

> <r_i_glide_einternal>
0.236127212643623

> <i_i_glide_confnum>
5

> <i_i_glide_posenum>
19

> <r_i_glide_eff_state_penalty>
-0

> <r_i_glide_rmsd>
0.082611355512197

> <s_glide_core_constrain_type>
snapped_core_restrain

$$$$
lig_65
                    3D
 Schrodinger Suite 2022-3.
 43 45  0  0  1  0            999 V2000
   67.2699  -36.1687   28.4803 H   0  0  0  0  0  0
   68.1210  -35.6074   28.1258 C   0  0  0  0  0  0
   67.9583  -34.7070   27.0543 C   0  0  0  0  0  0
   69.0324  -33.9479   26.5347 C   0  0  0  0  0  0
   70.3012  -34.1218   27.1689 C   0  0  0  0  0  0
   70.4753  -35.0168   28.2480 C   0  0  0  0  0  0
   69.3839  -35.7681   28.7217 C   0  0  0  0  0  0
   69.5128  -36.4583   29.5456 H   0  0  0  0  0  0
   72.0175  -35.1929   29.0059 Cl  0  0  0  0  0  0
   71.5076  -33.0933   26.4116 S   0  0  0  0  0  0
   70.3415  -32.4563   25.2723 C   0  0  0  0  0  0
   69.0709  -32.9845   25.4428 C   0  0  0  0  0  0
   67.8648  -32.6224   24.6289 C   0  0  0  0  0  0
   67.1086  -33.4058   24.6833 H   0  0  0  0  0  0
   68.1237  -32.5724   23.5738 H   0  0  0  0  0  0
   67.2360  -31.2908   25.0679 C   0  0  0  0  0  0
   66.4978  -30.9832   24.3259 H   0  0  0  0  0  0
   68.0035  -30.5135   25.0726 H   0  0  0  0  0  0
   66.5611  -31.3413   26.4478 C   0  0  0  0  0  0
   66.2944  -30.3288   26.7603 H   0  0  0  0  0  0
   67.2385  -31.7539   27.1953 H   0  0  0  0  0  0
   65.4003  -32.1420   26.3359 O   0  0  0  0  0  0
   64.5299  -32.1955   27.4017 C   0  0  0  0  0  0
   63.2654  -32.7652   27.1585 C   0  0  0  0  0  0
   62.3293  -32.9173   28.1993 C   0  0  0  0  0  0
   62.6515  -32.4605   29.4959 C   0  0  0  0  0  0
   63.9062  -31.8538   29.7463 C   0  0  0  0  0  0
   64.8454  -31.7315   28.7012 C   0  0  0  0  0  0
   65.8039  -31.2752   28.9121 H   0  0  0  0  0  0
   64.2652  -31.3331   31.1298 C   0  0  0  0  0  0
   65.2414  -30.8459   31.1314 H   0  0  0  0  0  0
   64.2880  -32.1510   31.8470 H   0  0  0  0  0  0
   63.5243  -30.6028   31.4618 H   0  0  0  0  0  0
   61.5082  -32.6540   30.7773 Cl  0  0  0  0  0  0
   61.0084  -33.6165   27.9132 C   0  0  0  0  0  0
   60.9570  -33.9391   26.8747 H   0  0  0  0  0  0
   60.8974  -34.4982   28.5478 H   0  0  0  0  0  0
   60.1746  -32.9440   28.1033 H   0  0  0  0  0  0
   63.0312  -33.1255   26.1595 H   0  0  0  0  0  0
   70.8835  -31.4540   24.3021 C   0  0  0  0  0  0
   70.1597  -31.0084   23.3786 O   0  0  0  0  0  0
   72.0617  -31.0547   24.4231 O   0  5  0  0  0  0
   66.9798  -34.5854   26.6074 H   0  0  0  0  0  0
  1  2  1  0  0  0
  2  7  1  0  0  0
  2  3  2  0  0  0
  3  4  1  0  0  0
  3 43  1  0  0  0
  4 12  1  0  0  0
  4  5  2  0  0  0
  5  6  1  0  0  0
  5 10  1  0  0  0
  6  7  2  0  0  0
  6  9  1  0  0  0
  7  8  1  0  0  0
 10 11  1  0  0  0
 11 12  2  0  0  0
 11 40  1  0  0  0
 12 13  1  0  0  0
 13 14  1  0  0  0
 13 15  1  0  0  0
 13 16  1  0  0  0
 16 17  1  0  0  0
 16 18  1  0  0  0
 16 19  1  0  0  0
 19 20  1  0  0  0
 19 21  1  0  0  0
 19 22  1  0  0  0
 22 23  1  0  0  0
 23 28  1  0  0  0
 23 24  2  0  0  0
 24 25  1  0  0  0
 24 39  1  0  0  0
 25 26  2  0  0  0
 25 35  1  0  0  0
 26 27  1  0  0  0
 26 34  1  0  0  0
 27 28  2  0  0  0
 27 30  1  0  0  0
 28 29  1  0  0  0
 30 31  1  0  0  0
 30 32  1  0  0  0
 30 33  1  0  0  0
 35 36  1  0  0  0
 35 37  1  0  0  0
 35 38  1  0  0  0
 40 41  2  0  0  0
 40 42  1  0  0  0
M  CHG  1  42  -1
M  END
> <s_m_source_file>
ligprep_mcl1.smi

> <i_m_source_file_index>
39

> <i_lp_mmshare_version>
53161

> <i_f3d_flags>
0

> <s_epik_input>
W2NIXTFbY0hdW2NIXWMoQ2wpYyhjMTIpc2MoQyg9TylbT0hdKWMyW0NIMl1bQ0gyXVtDSDJdT2MzW2NIXWMoW0NIM10pYyhDbCljKFtjSF0zKVtDSDNd

> <s_epik_cmdline>
J2VwaWtfcHl0aG9uJywgJy1waHQnLCAnMC4wJywgJy1waCcsICc3LjQnLCAnLXRuJywgJzgnLCAnLW1hJywgJzUwMCcsICctaW1hZScsICc8aW5maWxlLm1hZT4nLCAnLW9tYWUnLCAnPG91dGZpbGUubWFlPic=

> <r_lp_tautomer_probability>
1

> <r_epik_Ionization_Penalty>
  0.0001

> <r_epik_Ionization_Penalty_Charging>
  0.0001

> <r_epik_Ionization_Penalty_Neutral>
  0.0000

> <r_epik_State_Penalty>
 -0.0000

> <r_epik_Charging_Adjusted_Penalty>
7.86687e-05

> <i_epik_Tot_Q>
-1

> <i_epik_Tot_abs_Q>
1

> <s_lp_Force_Field>
S-OPLS

> <r_lp_Energy>
34.235

> <b_lp_Chiralities_Consistent>
1

> <s_lp_Variant>
lig_65-1

> <s_i_glide_gridfile>
glide-grid_MCL1-4HW3

> <i_i_glide_lignum>
39

> <i_i_glide_rotatable_bonds>
6

> <r_i_docking_score>
-9.54699609532322

> <r_i_glide_ligand_efficiency>
-0.367192157512432

> <r_i_glide_ligand_efficiency_sa>
-1.08780532179921

> <r_i_glide_ligand_efficiency_ln>
-2.24208070673739

> <r_i_glide_gscore>
-9.54699609532322

> <r_i_glide_lipo>
-5.76380232897579

> <r_i_glide_hbond>
-0.234038132794441

> <r_i_glide_metal>
-0

> <r_i_glide_rewards>
-1.48145066328462

> <r_i_glide_evdw>
-46.9871406555176

> <r_i_glide_ecoul>
-2.60408687591553

> <r_i_glide_erotb>
0.708242865114977

> <r_i_glide_esite>
-0.0359777712201399

> <r_i_glide_emodel>
-89.7831520018442

> <r_i_glide_energy>
-49.5912275314331

> <r_i_glide_einternal>
6.78147387134231e-08

> <i_i_glide_confnum>
2

> <i_i_glide_posenum>
2

> <r_i_glide_eff_state_penalty>
-0

> <r_i_glide_rmsd>
0.0581727806027221

> <s_glide_core_constrain_type>
snapped_core_restrain

$$$$
lig_60
                    3D
 Schrodinger Suite 2022-3.
 43 45  0  0  1  0            999 V2000
   67.3048  -36.1914   28.4724 H   0  0  0  0  0  0
   68.1438  -35.6187   28.1157 C   0  0  0  0  0  0
   69.4123  -35.7788   28.6964 C   0  0  0  0  0  0
   70.4984  -35.0275   28.2122 C   0  0  0  0  0  0
   70.3058  -34.1234   27.1480 C   0  0  0  0  0  0
   69.0307  -33.9402   26.5279 C   0  0  0  0  0  0
   67.9660  -34.7091   27.0543 C   0  0  0  0  0  0
   66.9843  -34.6033   26.6145 H   0  0  0  0  0  0
   69.0613  -32.9690   25.4409 C   0  0  0  0  0  0
   70.3359  -32.4575   25.2571 C   0  0  0  0  0  0
   71.5081  -33.1048   26.3814 S   0  0  0  0  0  0
   70.8833  -31.4540   24.2977 C   0  0  0  0  0  0
   70.1614  -31.0076   23.3747 O   0  0  0  0  0  0
   72.0610  -31.0547   24.4257 O   0  5  0  0  0  0
   67.8486  -32.5941   24.6357 C   0  0  0  0  0  0
   67.0813  -33.3688   24.6762 H   0  0  0  0  0  0
   68.1241  -32.5194   23.5812 H   0  0  0  0  0  0
   67.2498  -31.2546   25.0883 C   0  0  0  0  0  0
   66.5104  -30.9427   24.3452 H   0  0  0  0  0  0
   68.0216  -30.4906   25.0941 H   0  0  0  0  0  0
   66.5736  -31.3109   26.4722 C   0  0  0  0  0  0
   66.3086  -30.3056   26.7954 H   0  0  0  0  0  0
   67.2408  -31.7408   27.2187 H   0  0  0  0  0  0
   65.4133  -32.1122   26.3574 O   0  0  0  0  0  0
   64.5364  -32.1689   27.4127 C   0  0  0  0  0  0
   64.8414  -31.7244   28.7187 C   0  0  0  0  0  0
   63.8968  -31.8541   29.7556 C   0  0  0  0  0  0
   62.6419  -32.4532   29.4913 C   0  0  0  0  0  0
   62.3160  -32.8863   28.1881 C   0  0  0  0  0  0
   63.2666  -32.7208   27.1558 C   0  0  0  0  0  0
   63.0459  -33.0553   26.1491 H   0  0  0  0  0  0
   60.9876  -33.5581   27.8839 C   0  0  0  0  0  0
   60.9273  -33.8683   26.8357 H   0  0  0  0  0  0
   60.1493  -32.8797   28.0671 H   0  0  0  0  0  0
   60.8615  -34.4466   28.4912 H   0  0  0  0  0  0
   61.5011  -32.6543   30.7763 Cl  0  0  0  0  0  0
   64.2457  -31.3547   31.1459 C   0  0  0  0  0  0
   65.1910  -30.8067   31.1480 H   0  0  0  0  0  0
   63.4732  -30.6770   31.5066 H   0  0  0  0  0  0
   64.3332  -32.1845   31.8421 H   0  0  0  0  0  0
   65.8020  -31.2811   28.9448 H   0  0  0  0  0  0
   71.4856  -35.1348   28.6476 H   0  0  0  0  0  0
   69.5551  -36.4810   29.5047 H   0  0  0  0  0  0
  1  2  1  0  0  0
  2  7  1  0  0  0
  2  3  2  0  0  0
  3  4  1  0  0  0
  3 43  1  0  0  0
  4  5  2  0  0  0
  4 42  1  0  0  0
  5 11  1  0  0  0
  5  6  1  0  0  0
  6  7  2  0  0  0
  6  9  1  0  0  0
  7  8  1  0  0  0
  9 10  2  0  0  0
  9 15  1  0  0  0
 10 11  1  0  0  0
 10 12  1  0  0  0
 12 13  2  0  0  0
 12 14  1  0  0  0
 15 16  1  0  0  0
 15 17  1  0  0  0
 15 18  1  0  0  0
 18 19  1  0  0  0
 18 20  1  0  0  0
 18 21  1  0  0  0
 21 22  1  0  0  0
 21 23  1  0  0  0
 21 24  1  0  0  0
 24 25  1  0  0  0
 25 30  1  0  0  0
 25 26  2  0  0  0
 26 27  1  0  0  0
 26 41  1  0  0  0
 27 28  2  0  0  0
 27 37  1  0  0  0
 28 29  1  0  0  0
 28 36  1  0  0  0
 29 30  2  0  0  0
 29 32  1  0  0  0
 30 31  1  0  0  0
 32 33  1  0  0  0
 32 34  1  0  0  0
 32 35  1  0  0  0
 37 38  1  0  0  0
 37 39  1  0  0  0
 37 40  1  0  0  0
M  CHG  1  14  -1
M  END
> <s_m_source_file>
ligprep_mcl1.smi

> <i_m_source_file_index>
34

> <i_lp_mmshare_version>
53161

> <i_f3d_flags>
0

> <s_epik_input>
W2NIXTFbY0hdW2NIXVtjSF1jKGMxMiljKGMoczIpQyg9TylbT0hdKVtDSDJdW0NIMl1bQ0gyXU9jM1tjSF1jKFtDSDNdKWMoQ2wpYyhbY0hdMylbQ0gzXQ==

> <s_epik_cmdline>
J2VwaWtfcHl0aG9uJywgJy1waHQnLCAnMC4wJywgJy1waCcsICc3LjQnLCAnLXRuJywgJzgnLCAnLW1hJywgJzUwMCcsICctaW1hZScsICc8aW5maWxlLm1hZT4nLCAnLW9tYWUnLCAnPG91dGZpbGUubWFlPic=

> <r_lp_tautomer_probability>
1

> <r_epik_Ionization_Penalty>
  0.0001

> <r_epik_Ionization_Penalty_Charging>
  0.0001

> <r_epik_Ionization_Penalty_Neutral>
  0.0000

> <r_epik_State_Penalty>
 -0.0000

> <r_epik_Charging_Adjusted_Penalty>
0.000126764

> <i_epik_Tot_Q>
-1

> <i_epik_Tot_abs_Q>
1

> <s_lp_Force_Field>
S-OPLS

> <r_lp_Energy>
36.3454

> <b_lp_Chiralities_Consistent>
1

> <s_lp_Variant>
lig_60-1

> <s_i_glide_gridfile>
glide-grid_MCL1-4HW3

> <i_i_glide_lignum>
34

> <i_i_glide_rotatable_bonds>
6

> <r_i_docking_score>
-9.51101638853238

> <r_i_glide_ligand_efficiency>
-0.380440655541295

> <r_i_glide_ligand_efficiency_sa>
-1.1124152239465

> <r_i_glide_ligand_efficiency_ln>
-2.25439590624346

> <r_i_glide_gscore>
-9.51101638853238

> <r_i_glide_lipo>
-5.66863495157554

> <r_i_glide_hbond>
-0.234045081526993

> <r_i_glide_metal>
-0

> <r_i_glide_rewards>
-1.71469093146976

> <r_i_glide_evdw>
-45.8670234680176

> <r_i_glide_ecoul>
-2.62601208686829

> <r_i_glide_erotb>
0.829716188050851

> <r_i_glide_esite>
-0.0361086255798136

> <r_i_glide_emodel>
-87.7578492797976

> <r_i_glide_energy>
-48.4930355548859

> <r_i_glide_einternal>
2.77886499588931e-07

> <i_i_glide_confnum>
1

> <i_i_glide_posenum>
1

> <r_i_glide_eff_state_penalty>
-0

> <r_i_glide_rmsd>
0.0745747237598559

> <s_glide_core_constrain_type>
snapped_core_restrain

$$$$
lig_67
                    3D
 Schrodinger Suite 2022-3.
 43 45  0  0  1  0            999 V2000
   68.0331  -36.4420   28.5181 H   0  0  0  0  0  0
   68.7188  -35.7286   28.0793 C   0  0  0  0  0  0
   70.0516  -35.6506   28.5336 C   0  0  0  0  0  0
   70.9324  -34.7067   27.9621 C   0  0  0  0  0  0
   70.4587  -33.8709   26.9345 C   0  0  0  0  0  0
   69.1381  -33.9397   26.4359 C   0  0  0  0  0  0
   68.2704  -34.8794   27.0444 C   0  0  0  0  0  0
   67.2503  -34.9396   26.7016 H   0  0  0  0  0  0
   69.0489  -32.9581   25.3924 C   0  0  0  0  0  0
   70.2857  -32.3392   25.3178 C   0  0  0  0  0  0
   71.1451  -32.8854   26.2523 O   0  0  0  0  0  0
   70.7931  -31.2326   24.4541 C   0  0  0  0  0  0
   70.1456  -30.8615   23.4479 O   0  0  0  0  0  0
   71.8645  -30.6616   24.7534 O   0  5  0  0  0  0
   67.8322  -32.6260   24.5862 C   0  0  0  0  0  0
   67.1034  -33.4372   24.6313 H   0  0  0  0  0  0
   68.1058  -32.5396   23.5359 H   0  0  0  0  0  0
   67.1986  -31.3088   25.0560 C   0  0  0  0  0  0
   66.4288  -31.0068   24.3496 H   0  0  0  0  0  0
   67.9488  -30.5218   25.0344 H   0  0  0  0  0  0
   66.5920  -31.3784   26.4644 C   0  0  0  0  0  0
   66.3323  -30.3721   26.7955 H   0  0  0  0  0  0
   67.2996  -31.7976   27.1803 H   0  0  0  0  0  0
   65.4287  -32.1864   26.3768 O   0  0  0  0  0  0
   64.5431  -32.2097   27.4283 C   0  0  0  0  0  0
   64.8447  -31.7551   28.7327 C   0  0  0  0  0  0
   63.8875  -31.8591   29.7634 C   0  0  0  0  0  0
   62.6305  -32.4463   29.4959 C   0  0  0  0  0  0
   62.3163  -32.8913   28.1915 C   0  0  0  0  0  0
   63.2707  -32.7525   27.1663 C   0  0  0  0  0  0
   63.0497  -33.0970   26.1649 H   0  0  0  0  0  0
   60.9982  -33.5771   27.8916 C   0  0  0  0  0  0
   60.9329  -33.8573   26.8399 H   0  0  0  0  0  0
   60.1608  -32.9224   28.1275 H   0  0  0  0  0  0
   60.9081  -34.4829   28.4928 H   0  0  0  0  0  0
   61.4886  -32.6580   30.7768 Cl  0  0  0  0  0  0
   64.2201  -31.3679   31.1586 C   0  0  0  0  0  0
   65.1909  -30.8786   31.1879 H   0  0  0  0  0  0
   63.4687  -30.6536   31.4932 H   0  0  0  0  0  0
   64.2319  -32.2031   31.8575 H   0  0  0  0  0  0
   65.8135  -31.3484   28.9712 H   0  0  0  0  0  0
   71.9529  -34.6315   28.3043 H   0  0  0  0  0  0
   70.3928  -36.3130   29.3182 H   0  0  0  0  0  0
  1  2  1  0  0  0
  2  7  1  0  0  0
  2  3  2  0  0  0
  3  4  1  0  0  0
  3 43  1  0  0  0
  4  5  2  0  0  0
  4 42  1  0  0  0
  5 11  1  0  0  0
  5  6  1  0  0  0
  6  7  2  0  0  0
  6  9  1  0  0  0
  7  8  1  0  0  0
  9 10  2  0  0  0
  9 15  1  0  0  0
 10 11  1  0  0  0
 10 12  1  0  0  0
 12 13  2  0  0  0
 12 14  1  0  0  0
 15 16  1  0  0  0
 15 17  1  0  0  0
 15 18  1  0  0  0
 18 19  1  0  0  0
 18 20  1  0  0  0
 18 21  1  0  0  0
 21 22  1  0  0  0
 21 23  1  0  0  0
 21 24  1  0  0  0
 24 25  1  0  0  0
 25 30  1  0  0  0
 25 26  2  0  0  0
 26 27  1  0  0  0
 26 41  1  0  0  0
 27 28  2  0  0  0
 27 37  1  0  0  0
 28 29  1  0  0  0
 28 36  1  0  0  0
 29 30  2  0  0  0
 29 32  1  0  0  0
 30 31  1  0  0  0
 32 33  1  0  0  0
 32 34  1  0  0  0
 32 35  1  0  0  0
 37 38  1  0  0  0
 37 39  1  0  0  0
 37 40  1  0  0  0
M  CHG  1  14  -1
M  END
> <s_m_source_file>
ligprep_mcl1.smi

> <i_m_source_file_index>
41

> <i_lp_mmshare_version>
53161

> <i_f3d_flags>
0

> <s_epik_input>
W2NIXTFbY0hdW2NIXVtjSF1jKGMxMiljKGMobzIpQyg9TylbT0hdKVtDSDJdW0NIMl1bQ0gyXU9jM1tjSF1jKFtDSDNdKWMoQ2wpYyhbY0hdMylbQ0gzXQ==

> <s_epik_cmdline>
J2VwaWtfcHl0aG9uJywgJy1waHQnLCAnMC4wJywgJy1waCcsICc3LjQnLCAnLXRuJywgJzgnLCAnLW1hJywgJzUwMCcsICctaW1hZScsICc8aW5maWxlLm1hZT4nLCAnLW9tYWUnLCAnPG91dGZpbGUubWFlPic=

> <r_lp_tautomer_probability>
1

> <r_epik_Ionization_Penalty>
  0.0001

> <r_epik_Ionization_Penalty_Charging>
  0.0001

> <r_epik_Ionization_Penalty_Neutral>
  0.0000

> <r_epik_State_Penalty>
 -0.0000

> <r_epik_Charging_Adjusted_Penalty>
9.05897e-05

> <i_epik_Tot_Q>
-1

> <i_epik_Tot_abs_Q>
1

> <s_lp_Force_Field>
S-OPLS

> <r_lp_Energy>
34.3377

> <b_lp_Chiralities_Consistent>
1

> <s_lp_Variant>
lig_67-1

> <s_i_glide_gridfile>
glide-grid_MCL1-4HW3

> <i_i_glide_lignum>
41

> <i_i_glide_rotatable_bonds>
6

> <r_i_docking_score>
-9.50447169545832

> <r_i_glide_ligand_efficiency>
-0.380178867818333

> <r_i_glide_ligand_efficiency_sa>
-1.11164975200174

> <r_i_glide_ligand_efficiency_ln>
-2.25284461785628

> <r_i_glide_gscore>
-9.50447169545832

> <r_i_glide_lipo>
-5.4930308440449

> <r_i_glide_hbond>
-0.403661706799135

> <r_i_glide_metal>
-0

> <r_i_glide_rewards>
-1.80521596499172

> <r_i_glide_evdw>
-44.088680267334

> <r_i_glide_ecoul>
-3.01171326637268

> <r_i_glide_erotb>
0.897399033488196

> <r_i_glide_esite>
-0.0437712097881575

> <r_i_glide_emodel>
-82.4062294353434

> <r_i_glide_energy>
-47.1003935337067

> <r_i_glide_einternal>
3.99256038665771

> <i_i_glide_confnum>
2

> <i_i_glide_posenum>
26

> <r_i_glide_eff_state_penalty>
-0

> <r_i_glide_rmsd>
0.0758599245994409

> <s_glide_core_constrain_type>
snapped_core_restrain

$$$$
lig_46
                    3D
 Schrodinger Suite 2022-3.
 45 48  0  0  1  0            999 V2000
   67.9002  -36.4091   28.5016 H   0  0  0  0  0  0
   68.6144  -35.7194   28.0740 C   0  0  0  0  0  0
   69.9403  -35.7003   28.5497 C   0  0  0  0  0  0
   70.8658  -34.7940   27.9924 C   0  0  0  0  0  0
   70.4583  -33.9305   26.9575 C   0  0  0  0  0  0
   69.1307  -33.9415   26.4433 C   0  0  0  0  0  0
   68.2193  -34.8530   27.0334 C   0  0  0  0  0  0
   67.1997  -34.8800   26.6799 H   0  0  0  0  0  0
   69.0454  -32.9564   25.3946 C   0  0  0  0  0  0
   70.2860  -32.3581   25.3048 C   0  0  0  0  0  0
   71.1147  -32.9465   26.2459 N   0  0  0  0  0  0
   72.0679  -32.6311   26.3530 H   0  0  0  0  0  0
   70.8615  -31.2641   24.4771 C   0  0  0  0  0  0
   72.0091  -30.8436   24.7477 O   0  0  0  0  0  0
   70.2016  -30.7635   23.5389 O   0  5  0  0  0  0
   67.8208  -32.6133   24.5995 C   0  0  0  0  0  0
   68.0879  -32.5083   23.5474 H   0  0  0  0  0  0
   67.0954  -33.4277   24.6358 H   0  0  0  0  0  0
   67.1731  -31.3079   25.0864 C   0  0  0  0  0  0
   67.9237  -30.5183   25.0741 H   0  0  0  0  0  0
   66.3986  -31.0120   24.3791 H   0  0  0  0  0  0
   66.5598  -31.3921   26.4911 C   0  0  0  0  0  0
   67.2552  -31.8355   27.2071 H   0  0  0  0  0  0
   66.3122  -30.3838   26.8311 H   0  0  0  0  0  0
   65.3821  -32.1720   26.3843 O   0  0  0  0  0  0
   64.5135  -32.1904   27.4489 C   0  0  0  0  0  0
   64.8527  -31.7765   28.7713 C   0  0  0  0  0  0
   63.9077  -31.8714   29.8190 C   0  0  0  0  0  0
   62.6443  -32.4202   29.5342 C   0  0  0  0  0  0
   62.3104  -32.8235   28.2483 C   0  0  0  0  0  0
   63.2191  -32.6938   27.1855 C   0  0  0  0  0  0
   62.9524  -33.0259   26.1932 H   0  0  0  0  0  0
   60.9491  -33.4550   28.2038 C   0  0  0  0  0  0
   60.5183  -33.5209   29.6885 C   0  0  0  0  0  0
   61.5304  -32.6909   30.5073 C   0  0  0  0  0  0
   61.8841  -33.2312   31.3833 H   0  0  0  0  0  0
   61.0898  -31.7497   30.8295 H   0  0  0  0  0  0
   60.5754  -34.5608   30.0162 H   0  0  0  0  0  0
   59.4915  -33.1863   29.8419 H   0  0  0  0  0  0
   60.2739  -32.8417   27.6112 H   0  0  0  0  0  0
   61.0122  -34.4464   27.7573 H   0  0  0  0  0  0
   64.1638  -31.5618   30.8222 H   0  0  0  0  0  0
   65.8394  -31.3952   29.0082 H   0  0  0  0  0  0
   71.8826  -34.7644   28.3577 H   0  0  0  0  0  0
   70.2470  -36.3747   29.3404 H   0  0  0  0  0  0
  1  2  1  0  0  0
  2  7  1  0  0  0
  2  3  2  0  0  0
  3  4  1  0  0  0
  3 45  1  0  0  0
  4  5  2  0  0  0
  4 44  1  0  0  0
  5 11  1  0  0  0
  5  6  1  0  0  0
  6  7  2  0  0  0
  6  9  1  0  0  0
  7  8  1  0  0  0
  9 10  2  0  0  0
  9 16  1  0  0  0
 10 11  1  0  0  0
 10 13  1  0  0  0
 11 12  1  0  0  0
 13 14  2  0  0  0
 13 15  1  0  0  0
 16 17  1  0  0  0
 16 18  1  0  0  0
 16 19  1  0  0  0
 19 20  1  0  0  0
 19 21  1  0  0  0
 19 22  1  0  0  0
 22 23  1  0  0  0
 22 24  1  0  0  0
 22 25  1  0  0  0
 25 26  1  0  0  0
 26 31  1  0  0  0
 26 27  2  0  0  0
 27 28  1  0  0  0
 27 43  1  0  0  0
 28 29  2  0  0  0
 28 42  1  0  0  0
 29 35  1  0  0  0
 29 30  1  0  0  0
 30 31  2  0  0  0
 30 33  1  0  0  0
 31 32  1  0  0  0
 33 34  1  0  0  0
 33 40  1  0  0  0
 33 41  1  0  0  0
 34 35  1  0  0  0
 34 38  1  0  0  0
 34 39  1  0  0  0
 35 36  1  0  0  0
 35 37  1  0  0  0
M  CHG  1  15  -1
M  END
> <s_m_source_file>
ligprep_mcl1.smi

> <i_m_source_file_index>
22

> <i_lp_mmshare_version>
53161

> <i_f3d_flags>
0

> <s_epik_input>
W2NIXTFbY0hdW2NIXVtjSF1jKGMxMiljKGMoW25IXTIpQyg9TylbT0hdKVtDSDJdW0NIMl1bQ0gyXU9jKFtjSF1bY0hdMylbY0hdYyhjMzQpW0NIMl1bQ0gyXVtDSDJdNA==

> <s_epik_cmdline>
J2VwaWtfcHl0aG9uJywgJy1waHQnLCAnMC4wJywgJy1waCcsICc3LjQnLCAnLXRuJywgJzgnLCAnLW1hJywgJzUwMCcsICctaW1hZScsICc8aW5maWxlLm1hZT4nLCAnLW9tYWUnLCAnPG91dGZpbGUubWFlPic=

> <r_lp_tautomer_probability>
1

> <r_epik_Ionization_Penalty>
  0.0005

> <r_epik_Ionization_Penalty_Charging>
  0.0005

> <r_epik_Ionization_Penalty_Neutral>
  0.0000

> <r_epik_State_Penalty>
 -0.0000

> <r_epik_Charging_Adjusted_Penalty>
0.000454155

> <i_epik_Tot_Q>
-1

> <i_epik_Tot_abs_Q>
1

> <s_lp_Force_Field>
S-OPLS

> <r_lp_Energy>
36.3914

> <b_lp_Chiralities_Consistent>
1

> <s_lp_Variant>
lig_46-1

> <s_i_glide_gridfile>
glide-grid_MCL1-4HW3

> <i_i_glide_lignum>
22

> <i_i_glide_rotatable_bonds>
6

> <r_i_docking_score>
-9.49237374227673

> <r_i_glide_ligand_efficiency>
-0.379694949691069

> <r_i_glide_ligand_efficiency_sa>
-1.11023476681529

> <r_i_glide_ligand_efficiency_ln>
-2.24997704040585

> <r_i_glide_gscore>
-9.49237374227673

> <r_i_glide_lipo>
-5.54163156242163

> <r_i_glide_hbond>
-0.364729426650727

> <r_i_glide_metal>
-0

> <r_i_glide_rewards>
-2.01636576154576

> <r_i_glide_evdw>
-41.8188858032227

> <r_i_glide_ecoul>
-2.98179507255554

> <r_i_glide_erotb>
1.01201724312696

> <r_i_glide_esite>
-0.0434506837411074

> <r_i_glide_emodel>
-78.5608167297498

> <r_i_glide_energy>
-44.8006808757782

> <r_i_glide_einternal>
0.146230891346931

> <i_i_glide_confnum>
1

> <i_i_glide_posenum>
27

> <r_i_glide_eff_state_penalty>
-0

> <r_i_glide_rmsd>
0.083969333592143

> <s_glide_core_constrain_type>
snapped_core_restrain

$$$$
lig_50
                    3D
 Schrodinger Suite 2022-3.
 44 46  0  0  1  0            999 V2000
   71.1085  -36.0330   29.2980 H   0  0  0  0  0  0
   70.6540  -35.4105   28.5450 C   0  0  0  0  0  0
   71.4487  -34.5709   27.7432 C   0  0  0  0  0  0
   70.8394  -33.7744   26.7586 C   0  0  0  0  0  0
   69.4330  -33.7950   26.5231 C   0  0  0  0  0  0
   68.6660  -34.6193   27.3788 C   0  0  0  0  0  0
   69.2605  -35.4183   28.3770 C   0  0  0  0  0  0
   68.6465  -36.0430   29.0115 H   0  0  0  0  0  0
   66.9659  -34.6049   27.2198 Cl  0  0  0  0  0  0
   69.1447  -32.9091   25.4139 C   0  0  0  0  0  0
   70.3539  -32.3451   25.0542 C   0  0  0  0  0  0
   71.3475  -32.8622   25.8620 N   0  0  0  0  0  0
   72.3070  -32.5480   25.7582 H   0  0  0  0  0  0
   70.7750  -31.3341   24.0531 C   0  0  0  0  0  0
   71.9337  -30.8618   24.1140 O   0  0  0  0  0  0
   69.9708  -30.9291   23.1914 O   0  5  0  0  0  0
   67.8398  -32.5915   24.7350 C   0  0  0  0  0  0
   67.1013  -33.3774   24.8761 H   0  0  0  0  0  0
   68.0115  -32.5803   23.6590 H   0  0  0  0  0  0
   67.2864  -31.2144   25.1389 C   0  0  0  0  0  0
   66.5771  -30.8647   24.3876 H   0  0  0  0  0  0
   68.0921  -30.4782   25.1493 H   0  0  0  0  0  0
   66.5772  -31.2324   26.4947 C   0  0  0  0  0  0
   66.3366  -30.2107   26.7971 H   0  0  0  0  0  0
   67.2300  -31.6584   27.2552 H   0  0  0  0  0  0
   65.3951  -32.0055   26.3511 O   0  0  0  0  0  0
   64.5425  -32.1121   27.4237 C   0  0  0  0  0  0
   64.8626  -31.7114   28.7422 C   0  0  0  0  0  0
   63.9187  -31.8653   29.7797 C   0  0  0  0  0  0
   62.6593  -32.4517   29.5103 C   0  0  0  0  0  0
   62.3378  -32.8645   28.1975 C   0  0  0  0  0  0
   63.2747  -32.6672   27.1661 C   0  0  0  0  0  0
   63.0277  -32.9857   26.1651 H   0  0  0  0  0  0
   61.0205  -33.5466   27.8879 C   0  0  0  0  0  0
   61.0074  -33.9244   26.8649 H   0  0  0  0  0  0
   60.1987  -32.8394   27.9999 H   0  0  0  0  0  0
   60.8528  -34.3918   28.5578 H   0  0  0  0  0  0
   61.5069  -32.6700   30.7779 Cl  0  0  0  0  0  0
   64.2649  -31.3976   31.1771 C   0  0  0  0  0  0
   65.2290  -30.8896   31.2025 H   0  0  0  0  0  0
   63.5047  -30.7020   31.5371 H   0  0  0  0  0  0
   64.3116  -32.2491   31.8550 H   0  0  0  0  0  0
   65.8236  -31.2811   28.9731 H   0  0  0  0  0  0
   72.5181  -34.5348   27.8812 H   0  0  0  0  0  0
  1  2  1  0  0  0
  2  7  1  0  0  0
  2  3  2  0  0  0
  3  4  1  0  0  0
  3 44  1  0  0  0
  4 12  1  0  0  0
  4  5  2  0  0  0
  5  6  1  0  0  0
  5 10  1  0  0  0
  6  7  2  0  0  0
  6  9  1  0  0  0
  7  8  1  0  0  0
 10 11  2  0  0  0
 10 17  1  0  0  0
 11 12  1  0  0  0
 11 14  1  0  0  0
 12 13  1  0  0  0
 14 15  2  0  0  0
 14 16  1  0  0  0
 17 18  1  0  0  0
 17 19  1  0  0  0
 17 20  1  0  0  0
 20 21  1  0  0  0
 20 22  1  0  0  0
 20 23  1  0  0  0
 23 24  1  0  0  0
 23 25  1  0  0  0
 23 26  1  0  0  0
 26 27  1  0  0  0
 27 32  1  0  0  0
 27 28  2  0  0  0
 28 29  1  0  0  0
 28 43  1  0  0  0
 29 30  2  0  0  0
 29 39  1  0  0  0
 30 31  1  0  0  0
 30 38  1  0  0  0
 31 32  2  0  0  0
 31 34  1  0  0  0
 32 33  1  0  0  0
 34 35  1  0  0  0
 34 36  1  0  0  0
 34 37  1  0  0  0
 39 40  1  0  0  0
 39 41  1  0  0  0
 39 42  1  0  0  0
M  CHG  1  16  -1
M  END
> <s_m_source_file>
ligprep_mcl1.smi

> <i_m_source_file_index>
26

> <i_lp_mmshare_version>
53161

> <i_f3d_flags>
0

> <s_epik_input>
W2NIXTFbY0hdW2NIXWMoQ2wpYyhjMTIpYyhjKFtuSF0yKUMoPU8pW09IXSlbQ0gyXVtDSDJdW0NIMl1PYzNbY0hdYyhbQ0gzXSljKENsKWMoW2NIXTMpW0NIM10=

> <s_epik_cmdline>
J2VwaWtfcHl0aG9uJywgJy1waHQnLCAnMC4wJywgJy1waCcsICc3LjQnLCAnLXRuJywgJzgnLCAnLW1hJywgJzUwMCcsICctaW1hZScsICc8aW5maWxlLm1hZT4nLCAnLW9tYWUnLCAnPG91dGZpbGUubWFlPic=

> <r_lp_tautomer_probability>
1

> <r_epik_Ionization_Penalty>
  0.0002

> <r_epik_Ionization_Penalty_Charging>
  0.0002

> <r_epik_Ionization_Penalty_Neutral>
  0.0000

> <r_epik_State_Penalty>
 -0.0000

> <r_epik_Charging_Adjusted_Penalty>
0.000204149

> <i_epik_Tot_Q>
-1

> <i_epik_Tot_abs_Q>
1

> <s_lp_Force_Field>
S-OPLS

> <r_lp_Energy>
34.5573

> <b_lp_Chiralities_Consistent>
1

> <s_lp_Variant>
lig_50-1

> <s_i_glide_gridfile>
glide-grid_MCL1-4HW3

> <i_i_glide_lignum>
26

> <i_i_glide_rotatable_bonds>
6

> <r_i_docking_score>
-9.42872986281951

> <r_i_glide_ligand_efficiency>
-0.362643456262289

> <r_i_glide_ligand_efficiency_sa>
-1.07432981224393

> <r_i_glide_ligand_efficiency_ln>
-2.21430627009705

> <r_i_glide_gscore>
-9.42872986281951

> <r_i_glide_lipo>
-5.57804304857059

> <r_i_glide_hbond>
-0.328763715792209

> <r_i_glide_metal>
-0

> <r_i_glide_rewards>
-1.61337240305383

> <r_i_glide_evdw>
-44.4150810241699

> <r_i_glide_ecoul>
-2.68626403808594

> <r_i_glide_erotb>
0.764761618202668

> <r_i_glide_esite>
-0.0496186566841659

> <r_i_glide_emodel>
-76.0365093212978

> <r_i_glide_energy>
-47.1013450622559

> <r_i_glide_einternal>
4.68639898300171

> <i_i_glide_confnum>
6

> <i_i_glide_posenum>
21

> <r_i_glide_eff_state_penalty>
-0

> <r_i_glide_rmsd>
0.0992785565772248

> <s_glide_core_constrain_type>
snapped_core_restrain

$$$$
lig_61
                    3D
 Schrodinger Suite 2022-3.
 43 45  0  0  1  0            999 V2000
   69.6339  -36.4891   29.5338 H   0  0  0  0  0  0
   69.4938  -35.7944   28.7219 C   0  0  0  0  0  0
   70.5769  -35.0540   28.2205 C   0  0  0  0  0  0
   70.3849  -34.1457   27.1549 C   0  0  0  0  0  0
   69.1053  -33.9454   26.5567 C   0  0  0  0  0  0
   68.0550  -34.7035   27.1329 C   0  0  0  0  0  0
   68.2252  -35.6223   28.1695 C   0  0  0  0  0  0
   67.3674  -36.1390   28.5625 H   0  0  0  0  0  0
   66.4957  -34.3849   26.6959 Cl  0  0  0  0  0  0
   69.1165  -32.9632   25.4738 C   0  0  0  0  0  0
   70.3983  -32.4640   25.2902 C   0  0  0  0  0  0
   71.5836  -33.1453   26.3726 S   0  0  0  0  0  0
   70.9324  -31.4513   24.3260 C   0  0  0  0  0  0
   70.2044  -30.9919   23.4300 O   0  0  0  0  0  0
   72.1162  -31.0685   24.4170 O   0  5  0  0  0  0
   67.9186  -32.5406   24.6477 C   0  0  0  0  0  0
   67.1787  -33.3296   24.5694 H   0  0  0  0  0  0
   68.2147  -32.4631   23.5983 H   0  0  0  0  0  0
   67.2802  -31.2201   25.1219 C   0  0  0  0  0  0
   66.5769  -30.8866   24.3662 H   0  0  0  0  0  0
   68.0605  -30.4665   25.1752 H   0  0  0  0  0  0
   66.5363  -31.2537   26.4726 C   0  0  0  0  0  0
   66.2752  -30.2423   26.7768 H   0  0  0  0  0  0
   67.1672  -31.6825   27.2521 H   0  0  0  0  0  0
   65.3362  -32.0038   26.3413 O   0  0  0  0  0  0
   64.4824  -32.0967   27.4132 C   0  0  0  0  0  0
   64.8003  -31.6692   28.7257 C   0  0  0  0  0  0
   63.8703  -31.8352   29.7718 C   0  0  0  0  0  0
   62.6173  -32.4456   29.5109 C   0  0  0  0  0  0
   62.2964  -32.8766   28.2052 C   0  0  0  0  0  0
   63.2274  -32.6902   27.1710 C   0  0  0  0  0  0
   62.9958  -33.0399   26.1716 H   0  0  0  0  0  0
   60.9773  -33.5611   27.9027 C   0  0  0  0  0  0
   60.9740  -33.9645   26.8899 H   0  0  0  0  0  0
   60.1604  -32.8445   27.9765 H   0  0  0  0  0  0
   60.7934  -34.3861   28.5933 H   0  0  0  0  0  0
   61.4724  -32.6546   30.7813 Cl  0  0  0  0  0  0
   64.2269  -31.3580   31.1623 C   0  0  0  0  0  0
   65.1937  -30.8502   31.1874 H   0  0  0  0  0  0
   63.4747  -30.6540   31.5208 H   0  0  0  0  0  0
   64.2636  -32.1979   31.8540 H   0  0  0  0  0  0
   65.7576  -31.2215   28.9464 H   0  0  0  0  0  0
   71.5574  -35.1945   28.6491 H   0  0  0  0  0  0
  1  2  1  0  0  0
  2  7  1  0  0  0
  2  3  2  0  0  0
  3  4  1  0  0  0
  3 43  1  0  0  0
  4 12  1  0  0  0
  4  5  2  0  0  0
  5  6  1  0  0  0
  5 10  1  0  0  0
  6  7  2  0  0  0
  6  9  1  0  0  0
  7  8  1  0  0  0
 10 11  2  0  0  0
 10 16  1  0  0  0
 11 12  1  0  0  0
 11 13  1  0  0  0
 13 14  2  0  0  0
 13 15  1  0  0  0
 16 17  1  0  0  0
 16 18  1  0  0  0
 16 19  1  0  0  0
 19 20  1  0  0  0
 19 21  1  0  0  0
 19 22  1  0  0  0
 22 23  1  0  0  0
 22 24  1  0  0  0
 22 25  1  0  0  0
 25 26  1  0  0  0
 26 31  1  0  0  0
 26 27  2  0  0  0
 27 28  1  0  0  0
 27 42  1  0  0  0
 28 29  2  0  0  0
 28 38  1  0  0  0
 29 30  1  0  0  0
 29 37  1  0  0  0
 30 31  2  0  0  0
 30 33  1  0  0  0
 31 32  1  0  0  0
 33 34  1  0  0  0
 33 35  1  0  0  0
 33 36  1  0  0  0
 38 39  1  0  0  0
 38 40  1  0  0  0
 38 41  1  0  0  0
M  CHG  1  15  -1
M  END
> <s_m_source_file>
ligprep_mcl1.smi

> <i_m_source_file_index>
35

> <i_lp_mmshare_version>
53161

> <i_f3d_flags>
0

> <s_epik_input>
W2NIXTFbY0hdW2NIXWMoQ2wpYyhjMTIpYyhjKHMyKUMoPU8pW09IXSlbQ0gyXVtDSDJdW0NIMl1PYzNbY0hdYyhbQ0gzXSljKENsKWMoW2NIXTMpW0NIM10=

> <s_epik_cmdline>
J2VwaWtfcHl0aG9uJywgJy1waHQnLCAnMC4wJywgJy1waCcsICc3LjQnLCAnLXRuJywgJzgnLCAnLW1hJywgJzUwMCcsICctaW1hZScsICc8aW5maWxlLm1hZT4nLCAnLW9tYWUnLCAnPG91dGZpbGUubWFlPic=

> <r_lp_tautomer_probability>
1

> <r_epik_Ionization_Penalty>
  0.0001

> <r_epik_Ionization_Penalty_Charging>
  0.0001

> <r_epik_Ionization_Penalty_Neutral>
  0.0000

> <r_epik_State_Penalty>
 -0.0000

> <r_epik_Charging_Adjusted_Penalty>
7.87387e-05

> <i_epik_Tot_Q>
-1

> <i_epik_Tot_abs_Q>
1

> <s_lp_Force_Field>
S-OPLS

> <r_lp_Energy>
42.6065

> <b_lp_Chiralities_Consistent>
1

> <s_lp_Variant>
lig_61-1

> <s_i_glide_gridfile>
glide-grid_MCL1-4HW3

> <i_i_glide_lignum>
35

> <i_i_glide_rotatable_bonds>
6

> <r_i_docking_score>
-9.36319462822258

> <r_i_glide_ligand_efficiency>
-0.360122870316253

> <r_i_glide_ligand_efficiency_sa>
-1.06686258629683

> <r_i_glide_ligand_efficiency_ln>
-2.19891553529061

> <r_i_glide_gscore>
-9.36319462822258

> <r_i_glide_lipo>
-5.86067964390259

> <r_i_glide_hbond>
-0.220475593229911

> <r_i_glide_metal>
-0

> <r_i_glide_rewards>
-1.52350059475153

> <r_i_glide_evdw>
-41.180721282959

> <r_i_glide_ecoul>
-2.4675395488739

> <r_i_glide_erotb>
0.708242865114977

> <r_i_glide_esite>
-0.0376146649744973

> <r_i_glide_emodel>
-72.9832139876723

> <r_i_glide_energy>
-43.6482608318329

> <r_i_glide_einternal>
-1.34983466182348e-07

> <i_i_glide_confnum>
1

> <i_i_glide_posenum>
1

> <r_i_glide_eff_state_penalty>
-0

> <r_i_glide_rmsd>
0.100505102592617

> <s_glide_core_constrain_type>
snapped_core_restrain

$$$$
lig_36
                    3D
 Schrodinger Suite 2022-3.
 44 46  0  0  1  0            999 V2000
   67.9201  -36.4060   28.4606 H   0  0  0  0  0  0
   68.6282  -35.7025   28.0525 C   0  0  0  0  0  0
   69.9419  -35.6584   28.5580 C   0  0  0  0  0  0
   70.8631  -34.7392   28.0209 C   0  0  0  0  0  0
   70.4626  -33.8802   26.9795 C   0  0  0  0  0  0
   69.1474  -33.9197   26.4377 C   0  0  0  0  0  0
   68.2375  -34.8436   27.0052 C   0  0  0  0  0  0
   67.2251  -34.8902   26.6255 H   0  0  0  0  0  0
   69.0671  -32.9350   25.3890 C   0  0  0  0  0  0
   70.2930  -32.3073   25.3211 C   0  0  0  0  0  0
   71.1163  -32.8865   26.2740 N   0  0  0  0  0  0
   72.0651  -32.5593   26.3875 H   0  0  0  0  0  0
   70.8494  -31.1910   24.5056 C   0  0  0  0  0  0
   70.1879  -30.7084   23.5581 O   0  0  0  0  0  0
   71.9808  -30.7440   24.7942 O   0  5  0  0  0  0
   67.8526  -32.6102   24.5637 C   0  0  0  0  0  0
   68.1328  -32.5011   23.5155 H   0  0  0  0  0  0
   67.1348  -33.4306   24.5884 H   0  0  0  0  0  0
   67.1631  -31.3155   25.0246 C   0  0  0  0  0  0
   67.8830  -30.4966   25.0094 H   0  0  0  0  0  0
   66.3893  -31.0470   24.3072 H   0  0  0  0  0  0
   66.5389  -31.3948   26.4247 C   0  0  0  0  0  0
   67.2514  -31.7932   27.1519 H   0  0  0  0  0  0
   66.2557  -30.3915   26.7495 H   0  0  0  0  0  0
   65.3908  -32.2249   26.3502 O   0  0  0  0  0  0
   64.5228  -32.2333   27.4159 C   0  0  0  0  0  0
   63.2255  -32.7265   27.1766 C   0  0  0  0  0  0
   62.2921  -32.8307   28.2204 C   0  0  0  0  0  0
   62.6489  -32.4299   29.5216 C   0  0  0  0  0  0
   63.9334  -31.8850   29.7795 C   0  0  0  0  0  0
   64.8661  -31.7930   28.7179 C   0  0  0  0  0  0
   65.8496  -31.3923   28.9112 H   0  0  0  0  0  0
   64.2875  -31.4179   31.1907 C   0  0  0  0  0  0
   63.6500  -30.5652   31.4274 H   0  0  0  0  0  0
   64.0251  -32.2044   31.8992 H   0  0  0  0  0  0
   65.7568  -31.0255   31.4116 C   0  0  0  0  0  0
   65.9251  -30.7423   32.4501 H   0  0  0  0  0  0
   66.4291  -31.8540   31.1820 H   0  0  0  0  0  0
   66.0440  -30.1838   30.7809 H   0  0  0  0  0  0
   61.4864  -32.6438   30.7806 Cl  0  0  0  0  0  0
   61.3040  -33.2210   28.0207 H   0  0  0  0  0  0
   62.9499  -33.0539   26.1826 H   0  0  0  0  0  0
   71.8689  -34.6897   28.4101 H   0  0  0  0  0  0
   70.2372  -36.3253   29.3538 H   0  0  0  0  0  0
  1  2  1  0  0  0
  2  7  1  0  0  0
  2  3  2  0  0  0
  3  4  1  0  0  0
  3 44  1  0  0  0
  4  5  2  0  0  0
  4 43  1  0  0  0
  5 11  1  0  0  0
  5  6  1  0  0  0
  6  7  2  0  0  0
  6  9  1  0  0  0
  7  8  1  0  0  0
  9 10  2  0  0  0
  9 16  1  0  0  0
 10 11  1  0  0  0
 10 13  1  0  0  0
 11 12  1  0  0  0
 13 14  2  0  0  0
 13 15  1  0  0  0
 16 17  1  0  0  0
 16 18  1  0  0  0
 16 19  1  0  0  0
 19 20  1  0  0  0
 19 21  1  0  0  0
 19 22  1  0  0  0
 22 23  1  0  0  0
 22 24  1  0  0  0
 22 25  1  0  0  0
 25 26  1  0  0  0
 26 31  1  0  0  0
 26 27  2  0  0  0
 27 28  1  0  0  0
 27 42  1  0  0  0
 28 29  2  0  0  0
 28 41  1  0  0  0
 29 30  1  0  0  0
 29 40  1  0  0  0
 30 31  2  0  0  0
 30 33  1  0  0  0
 31 32  1  0  0  0
 33 34  1  0  0  0
 33 35  1  0  0  0
 33 36  1  0  0  0
 36 37  1  0  0  0
 36 38  1  0  0  0
 36 39  1  0  0  0
M  CHG  1  15  -1
M  END
> <s_m_source_file>
ligprep_mcl1.smi

> <i_m_source_file_index>
12

> <i_lp_mmshare_version>
53161

> <i_f3d_flags>
0

> <s_epik_input>
W2NIXTFbY0hdW2NIXVtjSF1jKGMxMiljKGMoW25IXTIpQyg9TylbT0hdKVtDSDJdW0NIMl1bQ0gyXU9jM1tjSF1bY0hdYyhDbCljKFtjSF0zKVtDSDJdW0NIM10=

> <s_epik_cmdline>
J2VwaWtfcHl0aG9uJywgJy1waHQnLCAnMC4wJywgJy1waCcsICc3LjQnLCAnLXRuJywgJzgnLCAnLW1hJywgJzUwMCcsICctaW1hZScsICc8aW5maWxlLm1hZT4nLCAnLW9tYWUnLCAnPG91dGZpbGUubWFlPic=

> <r_lp_tautomer_probability>
1

> <r_epik_Ionization_Penalty>
  0.0005

> <r_epik_Ionization_Penalty_Charging>
  0.0005

> <r_epik_Ionization_Penalty_Neutral>
  0.0000

> <r_epik_State_Penalty>
 -0.0000

> <r_epik_Charging_Adjusted_Penalty>
0.000518745

> <i_epik_Tot_Q>
-1

> <i_epik_Tot_abs_Q>
1

> <s_lp_Force_Field>
S-OPLS

> <r_lp_Energy>
36.1789

> <b_lp_Chiralities_Consistent>
1

> <s_lp_Variant>
lig_36-1

> <s_i_glide_gridfile>
glide-grid_MCL1-4HW3

> <i_i_glide_lignum>
12

> <i_i_glide_rotatable_bonds>
7

> <r_i_docking_score>
-9.34615192296445

> <r_i_glide_ligand_efficiency>
-0.373846076918578

> <r_i_glide_ligand_efficiency_sa>
-1.09313255909833

> <r_i_glide_ligand_efficiency_ln>
-2.21531808731451

> <r_i_glide_gscore>
-9.34615192296445

> <r_i_glide_lipo>
-5.53208315619486

> <r_i_glide_hbond>
-0.424056585573127

> <r_i_glide_metal>
-0

> <r_i_glide_rewards>
-1.74807548436851

> <r_i_glide_evdw>
-43.9625778198242

> <r_i_glide_ecoul>
-2.97815608978271

> <r_i_glide_erotb>
1.05211810294781

> <r_i_glide_esite>
-0.0492024953171454

> <r_i_glide_emodel>
-79.8070750594374

> <r_i_glide_energy>
-46.9407339096069

> <r_i_glide_einternal>
3.33714985847473

> <i_i_glide_confnum>
22

> <i_i_glide_posenum>
40

> <r_i_glide_eff_state_penalty>
-0

> <r_i_glide_rmsd>
0.0904486387150788

> <s_glide_core_constrain_type>
snapped_core_restrain

$$$$
lig_53
                    3D
 Schrodinger Suite 2022-3.
 44 46  0  0  1  0            999 V2000
   67.4812  -34.8765   26.9190 H   0  0  0  0  0  0
   68.5133  -34.7340   27.2051 C   0  0  0  0  0  0
   69.0471  -35.4671   28.2817 C   0  0  0  0  0  0
   70.3889  -35.2756   28.6605 C   0  0  0  0  0  0
   71.2048  -34.3632   27.9774 C   0  0  0  0  0  0
   70.6644  -33.6406   26.9078 C   0  0  0  0  0  0
   69.3120  -33.8074   26.4940 C   0  0  0  0  0  0
   69.0825  -32.9181   25.3971 C   0  0  0  0  0  0
   70.2655  -32.2526   25.1529 C   0  0  0  0  0  0
   71.1990  -32.6853   26.0735 N   0  0  0  0  0  0
   72.1324  -32.2971   26.0773 H   0  0  0  0  0  0
   70.7007  -31.2098   24.1888 C   0  0  0  0  0  0
   71.8068  -30.6540   24.3685 O   0  0  0  0  0  0
   69.9703  -30.8892   23.2245 O   0  5  0  0  0  0
   67.7924  -32.6801   24.6640 C   0  0  0  0  0  0
   67.0929  -33.5007   24.8257 H   0  0  0  0  0  0
   67.9800  -32.6660   23.5899 H   0  0  0  0  0  0
   67.1453  -31.3442   25.0723 C   0  0  0  0  0  0
   66.3750  -31.0731   24.3494 H   0  0  0  0  0  0
   67.8886  -30.5491   25.0259 H   0  0  0  0  0  0
   66.5181  -31.3797   26.4701 C   0  0  0  0  0  0
   66.2353  -30.3706   26.7763 H   0  0  0  0  0  0
   67.2198  -31.7748   27.2051 H   0  0  0  0  0  0
   65.3733  -32.2069   26.3781 O   0  0  0  0  0  0
   64.5027  -32.2423   27.4363 C   0  0  0  0  0  0
   64.8166  -31.7935   28.7399 C   0  0  0  0  0  0
   63.8660  -31.9009   29.7754 C   0  0  0  0  0  0
   62.6042  -32.4834   29.5105 C   0  0  0  0  0  0
   62.2826  -32.9225   28.2066 C   0  0  0  0  0  0
   63.2297  -32.7785   27.1778 C   0  0  0  0  0  0
   62.9978  -33.1149   26.1773 H   0  0  0  0  0  0
   60.9510  -33.5774   27.8981 C   0  0  0  0  0  0
   60.9195  -33.9490   26.8732 H   0  0  0  0  0  0
   60.1363  -32.8639   28.0211 H   0  0  0  0  0  0
   60.7759  -34.4236   28.5631 H   0  0  0  0  0  0
   61.4533  -32.6700   30.7800 Cl  0  0  0  0  0  0
   64.2167  -31.4007   31.1655 C   0  0  0  0  0  0
   65.1859  -30.9008   31.1796 H   0  0  0  0  0  0
   63.4696  -30.6863   31.5119 H   0  0  0  0  0  0
   64.2537  -32.2325   31.8690 H   0  0  0  0  0  0
   65.7850  -31.3709   28.9617 H   0  0  0  0  0  0
   72.2321  -34.2158   28.2747 H   0  0  0  0  0  0
   71.0457  -36.1419   29.9782 Cl  0  0  0  0  0  0
   68.4275  -36.1724   28.8169 H   0  0  0  0  0  0
  1  2  1  0  0  0
  2  7  1  0  0  0
  2  3  2  0  0  0
  3  4  1  0  0  0
  3 44  1  0  0  0
  4  5  2  0  0  0
  4 43  1  0  0  0
  5  6  1  0  0  0
  5 42  1  0  0  0
  6 10  1  0  0  0
  6  7  2  0  0  0
  7  8  1  0  0  0
  8  9  2  0  0  0
  8 15  1  0  0  0
  9 10  1  0  0  0
  9 12  1  0  0  0
 10 11  1  0  0  0
 12 13  2  0  0  0
 12 14  1  0  0  0
 15 16  1  0  0  0
 15 17  1  0  0  0
 15 18  1  0  0  0
 18 19  1  0  0  0
 18 20  1  0  0  0
 18 21  1  0  0  0
 21 22  1  0  0  0
 21 23  1  0  0  0
 21 24  1  0  0  0
 24 25  1  0  0  0
 25 30  1  0  0  0
 25 26  2  0  0  0
 26 27  1  0  0  0
 26 41  1  0  0  0
 27 28  2  0  0  0
 27 37  1  0  0  0
 28 29  1  0  0  0
 28 36  1  0  0  0
 29 30  2  0  0  0
 29 32  1  0  0  0
 30 31  1  0  0  0
 32 33  1  0  0  0
 32 34  1  0  0  0
 32 35  1  0  0  0
 37 38  1  0  0  0
 37 39  1  0  0  0
 37 40  1  0  0  0
M  CHG  1  14  -1
M  END
> <s_m_source_file>
ligprep_mcl1.smi

> <i_m_source_file_index>
29

> <i_lp_mmshare_version>
53161

> <i_f3d_flags>
0

> <s_epik_input>
W2NIXTFjKENsKVtjSF1bY0hdYyhjMTIpYyhjKFtuSF0yKUMoPU8pW09IXSlbQ0gyXVtDSDJdW0NIMl1PYzNbY0hdYyhbQ0gzXSljKENsKWMoW2NIXTMpW0NIM10=

> <s_epik_cmdline>
J2VwaWtfcHl0aG9uJywgJy1waHQnLCAnMC4wJywgJy1waCcsICc3LjQnLCAnLXRuJywgJzgnLCAnLW1hJywgJzUwMCcsICctaW1hZScsICc8aW5maWxlLm1hZT4nLCAnLW9tYWUnLCAnPG91dGZpbGUubWFlPic=

> <r_lp_tautomer_probability>
1

> <r_epik_Ionization_Penalty>
  0.0003

> <r_epik_Ionization_Penalty_Charging>
  0.0003

> <r_epik_Ionization_Penalty_Neutral>
  0.0000

> <r_epik_State_Penalty>
 -0.0000

> <r_epik_Charging_Adjusted_Penalty>
0.000270667

> <i_epik_Tot_Q>
-1

> <i_epik_Tot_abs_Q>
1

> <s_lp_Force_Field>
S-OPLS

> <r_lp_Energy>
31.4838

> <b_lp_Chiralities_Consistent>
1

> <s_lp_Variant>
lig_53-1

> <s_i_glide_gridfile>
glide-grid_MCL1-4HW3

> <i_i_glide_lignum>
29

> <i_i_glide_rotatable_bonds>
6

> <r_i_docking_score>
-9.31357080916088

> <r_i_glide_ligand_efficiency>
-0.358214261890803

> <r_i_glide_ligand_efficiency_sa>
-1.06120834134645

> <r_i_glide_ligand_efficiency_ln>
-2.187261544213

> <r_i_glide_gscore>
-9.31357080916088

> <r_i_glide_lipo>
-5.4374158397595

> <r_i_glide_hbond>
-0.386136035911541

> <r_i_glide_metal>
-0

> <r_i_glide_rewards>
-1.57120507990307

> <r_i_glide_evdw>
-43.0750770568848

> <r_i_glide_ecoul>
-3.17555928230286

> <r_i_glide_erotb>
0.764761618202668

> <r_i_glide_esite>
-0.0534877265997637

> <r_i_glide_emodel>
-71.9001858044999

> <r_i_glide_energy>
-46.2506363391876

> <r_i_glide_einternal>
0.644192636013031

> <i_i_glide_confnum>
2

> <i_i_glide_posenum>
4

> <r_i_glide_eff_state_penalty>
-0

> <r_i_glide_rmsd>
0.0893902370509061

> <s_glide_core_constrain_type>
snapped_core_restrain

$$$$
lig_31
                    3D
 Schrodinger Suite 2022-3.
 41 43  0  0  1  0            999 V2000
   67.9856  -36.3909   28.5135 H   0  0  0  0  0  0
   68.6804  -35.6786   28.0931 C   0  0  0  0  0  0
   69.9871  -35.5802   28.6112 C   0  0  0  0  0  0
   70.8870  -34.6445   28.0638 C   0  0  0  0  0  0
   70.4722  -33.8244   26.9967 C   0  0  0  0  0  0
   69.1620  -33.9135   26.4469 C   0  0  0  0  0  0
   68.2768  -34.8562   27.0222 C   0  0  0  0  0  0
   67.2735  -34.9434   26.6347 H   0  0  0  0  0  0
   69.0593  -32.9501   25.3835 C   0  0  0  0  0  0
   70.2728  -32.2994   25.3048 C   0  0  0  0  0  0
   71.1058  -32.8290   26.2784 N   0  0  0  0  0  0
   72.0422  -32.4693   26.3994 H   0  0  0  0  0  0
   70.8085  -31.1911   24.4670 C   0  0  0  0  0  0
   70.1631  -30.7727   23.4786 O   0  0  0  0  0  0
   71.9059  -30.6740   24.7776 O   0  5  0  0  0  0
   67.8406  -32.6431   24.5572 C   0  0  0  0  0  0
   67.1144  -33.4536   24.6110 H   0  0  0  0  0  0
   68.1204  -32.5690   23.5055 H   0  0  0  0  0  0
   67.1645  -31.3319   24.9917 C   0  0  0  0  0  0
   66.3976  -31.0567   24.2677 H   0  0  0  0  0  0
   67.8984  -30.5278   24.9738 H   0  0  0  0  0  0
   66.5313  -31.3999   26.3863 C   0  0  0  0  0  0
   66.2388  -30.3955   26.6978 H   0  0  0  0  0  0
   67.2429  -31.7836   27.1172 H   0  0  0  0  0  0
   65.3924  -32.2420   26.3129 O   0  0  0  0  0  0
   64.5274  -32.2538   27.3788 C   0  0  0  0  0  0
   63.2289  -32.7521   27.1523 C   0  0  0  0  0  0
   62.2946  -32.8344   28.2009 C   0  0  0  0  0  0
   62.6468  -32.3817   29.4860 C   0  0  0  0  0  0
   63.9355  -31.8542   29.7212 C   0  0  0  0  0  0
   64.8760  -31.8084   28.6734 C   0  0  0  0  0  0
   65.8614  -31.4258   28.8863 H   0  0  0  0  0  0
   64.3277  -31.3411   31.0907 C   0  0  0  0  0  0
   65.0460  -32.2539   31.7226 F   0  0  0  0  0  0
   63.2413  -31.0539   31.8034 F   0  0  0  0  0  0
   65.0827  -30.2541   30.9926 F   0  0  0  0  0  0
   61.9220  -32.4405   30.2847 H   0  0  0  0  0  0
   61.3077  -33.2314   28.0161 H   0  0  0  0  0  0
   62.9538  -33.0898   26.1633 H   0  0  0  0  0  0
   71.8870  -34.5556   28.4594 H   0  0  0  0  0  0
   70.2939  -36.2144   29.4323 H   0  0  0  0  0  0
  1  2  1  0  0  0
  2  7  1  0  0  0
  2  3  2  0  0  0
  3  4  1  0  0  0
  3 41  1  0  0  0
  4  5  2  0  0  0
  4 40  1  0  0  0
  5 11  1  0  0  0
  5  6  1  0  0  0
  6  7  2  0  0  0
  6  9  1  0  0  0
  7  8  1  0  0  0
  9 10  2  0  0  0
  9 16  1  0  0  0
 10 11  1  0  0  0
 10 13  1  0  0  0
 11 12  1  0  0  0
 13 14  2  0  0  0
 13 15  1  0  0  0
 16 17  1  0  0  0
 16 18  1  0  0  0
 16 19  1  0  0  0
 19 20  1  0  0  0
 19 21  1  0  0  0
 19 22  1  0  0  0
 22 23  1  0  0  0
 22 24  1  0  0  0
 22 25  1  0  0  0
 25 26  1  0  0  0
 26 31  1  0  0  0
 26 27  2  0  0  0
 27 28  1  0  0  0
 27 39  1  0  0  0
 28 29  2  0  0  0
 28 38  1  0  0  0
 29 30  1  0  0  0
 29 37  1  0  0  0
 30 31  2  0  0  0
 30 33  1  0  0  0
 31 32  1  0  0  0
 33 34  1  0  0  0
 33 35  1  0  0  0
 33 36  1  0  0  0
M  CHG  1  15  -1
M  END
> <s_m_source_file>
ligprep_mcl1.smi

> <i_m_source_file_index>
7

> <i_lp_mmshare_version>
53161

> <i_f3d_flags>
0

> <s_epik_input>
W2NIXTFbY0hdW2NIXVtjSF1jKGMxMiljKGMoW25IXTIpQyg9TylbT0hdKVtDSDJdW0NIMl1bQ0gyXU9jM1tjSF1bY0hdW2NIXWMoW2NIXTMpQyhGKShGKUY=

> <s_epik_cmdline>
J2VwaWtfcHl0aG9uJywgJy1waHQnLCAnMC4wJywgJy1waCcsICc3LjQnLCAnLXRuJywgJzgnLCAnLW1hJywgJzUwMCcsICctaW1hZScsICc8aW5maWxlLm1hZT4nLCAnLW9tYWUnLCAnPG91dGZpbGUubWFlPic=

> <r_lp_tautomer_probability>
1

> <r_epik_Ionization_Penalty>
  0.0005

> <r_epik_Ionization_Penalty_Charging>
  0.0005

> <r_epik_Ionization_Penalty_Neutral>
  0.0000

> <r_epik_State_Penalty>
 -0.0000

> <r_epik_Charging_Adjusted_Penalty>
0.00045214

> <i_epik_Tot_Q>
-1

> <i_epik_Tot_abs_Q>
1

> <s_lp_Force_Field>
S-OPLS

> <r_lp_Energy>
35.8158

> <b_lp_Chiralities_Consistent>
1

> <s_lp_Variant>
lig_31-1

> <s_i_glide_gridfile>
glide-grid_MCL1-4HW3

> <i_i_glide_lignum>
7

> <i_i_glide_rotatable_bonds>
7

> <r_i_docking_score>
-9.26756168493219

> <r_i_glide_ligand_efficiency>
-0.3564446801897

> <r_i_glide_ligand_efficiency_sa>
-1.05596596251989

> <r_i_glide_ligand_efficiency_ln>
-2.17645645235614

> <r_i_glide_gscore>
-9.26756168493219

> <r_i_glide_lipo>
-4.84418141411962

> <r_i_glide_hbond>
-0.434800900996912

> <r_i_glide_metal>
-0

> <r_i_glide_rewards>
-2.68160442121554

> <r_i_glide_evdw>
-37.1264686584473

> <r_i_glide_ecoul>
-2.84055089950562

> <r_i_glide_erotb>
1.02382038153534

> <r_i_glide_esite>
-0.0483892622872557

> <r_i_glide_emodel>
-68.3357409699403

> <r_i_glide_energy>
-39.9670195579529

> <r_i_glide_einternal>
3.81511545181274

> <i_i_glide_confnum>
34

> <i_i_glide_posenum>
177

> <r_i_glide_eff_state_penalty>
-0

> <r_i_glide_rmsd>
0.0976841453019756

> <s_glide_core_constrain_type>
snapped_core_restrain

$$$$
lig_58
                    3D
 Schrodinger Suite 2022-3.
 47 49  0  0  1  0            999 V2000
   67.2425  -34.7170   26.7805 H   0  0  0  0  0  0
   68.2803  -34.7081   27.0813 C   0  0  0  0  0  0
   68.7200  -35.5752   28.0845 C   0  0  0  0  0  0
   70.0756  -35.5573   28.4379 C   0  0  0  0  0  0
   70.9967  -34.6841   27.8578 C   0  0  0  0  0  0
   70.5549  -33.8289   26.8502 C   0  0  0  0  0  0
   69.1971  -33.8463   26.4415 C   0  0  0  0  0  0
   69.0697  -32.9271   25.3934 C   0  0  0  0  0  0
   70.2986  -32.3421   25.1626 C   0  0  0  0  0  0
   71.2142  -32.8850   26.0769 N   0  0  0  0  0  0
   72.6331  -32.5721   26.2026 C   0  0  0  0  0  0
   73.1252  -33.2352   26.9117 H   0  0  0  0  0  0
   73.1258  -32.6868   25.2365 H   0  0  0  0  0  0
   72.7541  -31.5460   26.5511 H   0  0  0  0  0  0
   70.7007  -31.3009   24.1588 C   0  0  0  0  0  0
   71.7599  -30.6540   24.2995 O   0  0  0  0  0  0
   69.9609  -31.0541   23.1792 O   0  5  0  0  0  0
   67.7944  -32.6359   24.6495 C   0  0  0  0  0  0
   67.0759  -33.4459   24.7781 H   0  0  0  0  0  0
   67.9894  -32.6103   23.5779 H   0  0  0  0  0  0
   67.1572  -31.3049   25.0764 C   0  0  0  0  0  0
   66.3849  -31.0394   24.3545 H   0  0  0  0  0  0
   67.9034  -30.5127   25.0347 H   0  0  0  0  0  0
   66.5261  -31.3485   26.4724 C   0  0  0  0  0  0
   66.2430  -30.3395   26.7783 H   0  0  0  0  0  0
   67.2262  -31.7445   27.2078 H   0  0  0  0  0  0
   65.3801  -32.1750   26.3781 O   0  0  0  0  0  0
   64.5074  -32.2127   27.4360 C   0  0  0  0  0  0
   64.8154  -31.7588   28.7400 C   0  0  0  0  0  0
   63.8634  -31.8681   29.7749 C   0  0  0  0  0  0
   62.6052  -32.4591   29.5110 C   0  0  0  0  0  0
   62.2887  -32.9033   28.2078 C   0  0  0  0  0  0
   63.2366  -32.7570   27.1781 C   0  0  0  0  0  0
   63.0061  -33.0992   26.1795 H   0  0  0  0  0  0
   60.9588  -33.5646   27.9044 C   0  0  0  0  0  0
   60.9359  -33.9564   26.8872 H   0  0  0  0  0  0
   60.1436  -32.8483   28.0052 H   0  0  0  0  0  0
   60.7771  -34.3979   28.5837 H   0  0  0  0  0  0
   61.4497  -32.6513   30.7782 Cl  0  0  0  0  0  0
   64.2079  -31.3592   31.1632 C   0  0  0  0  0  0
   65.1703  -30.8462   31.1745 H   0  0  0  0  0  0
   63.4510  -30.6543   31.5081 H   0  0  0  0  0  0
   64.2567  -32.1875   31.8699 H   0  0  0  0  0  0
   65.7809  -31.3303   28.9628 H   0  0  0  0  0  0
   72.0302  -34.7007   28.1669 H   0  0  0  0  0  0
   70.6457  -36.6440   29.5781 Cl  0  0  0  0  0  0
   68.0323  -36.2609   28.5589 H   0  0  0  0  0  0
  1  2  1  0  0  0
  2  7  1  0  0  0
  2  3  2  0  0  0
  3  4  1  0  0  0
  3 47  1  0  0  0
  4  5  2  0  0  0
  4 46  1  0  0  0
  5  6  1  0  0  0
  5 45  1  0  0  0
  6 10  1  0  0  0
  6  7  2  0  0  0
  7  8  1  0  0  0
  8  9  2  0  0  0
  8 18  1  0  0  0
  9 10  1  0  0  0
  9 15  1  0  0  0
 10 11  1  0  0  0
 11 12  1  0  0  0
 11 13  1  0  0  0
 11 14  1  0  0  0
 15 16  2  0  0  0
 15 17  1  0  0  0
 18 19  1  0  0  0
 18 20  1  0  0  0
 18 21  1  0  0  0
 21 22  1  0  0  0
 21 23  1  0  0  0
 21 24  1  0  0  0
 24 25  1  0  0  0
 24 26  1  0  0  0
 24 27  1  0  0  0
 27 28  1  0  0  0
 28 33  1  0  0  0
 28 29  2  0  0  0
 29 30  1  0  0  0
 29 44  1  0  0  0
 30 31  2  0  0  0
 30 40  1  0  0  0
 31 32  1  0  0  0
 31 39  1  0  0  0
 32 33  2  0  0  0
 32 35  1  0  0  0
 33 34  1  0  0  0
 35 36  1  0  0  0
 35 37  1  0  0  0
 35 38  1  0  0  0
 40 41  1  0  0  0
 40 42  1  0  0  0
 40 43  1  0  0  0
M  CHG  1  17  -1
M  END
> <s_m_source_file>
ligprep_mcl1.smi

> <i_m_source_file_index>
33

> <i_lp_mmshare_version>
53161

> <i_f3d_flags>
0

> <s_epik_input>
W2NIXTFjKENsKVtjSF1bY0hdYyhjMTIpYyhjKG4yW0NIM10pQyg9TylbT0hdKVtDSDJdW0NIMl1bQ0gyXU9jM1tjSF1jKFtDSDNdKWMoQ2wpYyhbY0hdMylbQ0gzXQ==

> <s_epik_cmdline>
J2VwaWtfcHl0aG9uJywgJy1waHQnLCAnMC4wJywgJy1waCcsICc3LjQnLCAnLXRuJywgJzgnLCAnLW1hJywgJzUwMCcsICctaW1hZScsICc8aW5maWxlLm1hZT4nLCAnLW9tYWUnLCAnPG91dGZpbGUubWFlPic=

> <r_lp_tautomer_probability>
1

> <r_epik_Ionization_Penalty>
  0.0063

> <r_epik_Ionization_Penalty_Charging>
  0.0063

> <r_epik_Ionization_Penalty_Neutral>
  0.0000

> <r_epik_State_Penalty>
 -0.0000

> <r_epik_Charging_Adjusted_Penalty>
0.0062946

> <i_epik_Tot_Q>
-1

> <i_epik_Tot_abs_Q>
1

> <s_lp_Force_Field>
S-OPLS

> <r_lp_Energy>
42.9066

> <b_lp_Chiralities_Consistent>
1

> <s_lp_Variant>
lig_58-1

> <s_i_glide_gridfile>
glide-grid_MCL1-4HW3

> <i_i_glide_lignum>
33

> <i_i_glide_rotatable_bonds>
6

> <r_i_docking_score>
-9.23473249492337

> <r_i_glide_ligand_efficiency>
-0.342027129441606

> <r_i_glide_ligand_efficiency_sa>
-1.02608138719755

> <r_i_glide_ligand_efficiency_ln>
-2.14969347835427

> <r_i_glide_gscore>
-9.23473249492337

> <r_i_glide_lipo>
-5.55812647669645

> <r_i_glide_hbond>
-0.385850975999246

> <r_i_glide_metal>
-0

> <r_i_glide_rewards>
-1.57550192508275

> <r_i_glide_evdw>
-38.6523284912109

> <r_i_glide_ecoul>
-3.03232955932617

> <r_i_glide_erotb>
0.717799919275458

> <r_i_glide_esite>
-0.0455871779609032

> <r_i_glide_emodel>
-66.3061099933386

> <r_i_glide_energy>
-41.6846580505371

> <r_i_glide_einternal>
3.68824815750122

> <i_i_glide_confnum>
2

> <i_i_glide_posenum>
4

> <r_i_glide_eff_state_penalty>
-0

> <r_i_glide_rmsd>
0.0819731172927015

> <s_glide_core_constrain_type>
snapped_core_restrain

$$$$
lig_34
                    3D
 Schrodinger Suite 2022-3.
 41 43  0  0  1  0            999 V2000
   68.1199  -36.3491   28.6069 H   0  0  0  0  0  0
   68.7928  -35.6363   28.1515 C   0  0  0  0  0  0
   70.1142  -35.5151   28.6235 C   0  0  0  0  0  0
   70.9874  -34.5828   28.0304 C   0  0  0  0  0  0
   70.5286  -33.7862   26.9644 C   0  0  0  0  0  0
   69.2025  -33.8955   26.4590 C   0  0  0  0  0  0
   68.3444  -34.8346   27.0818 C   0  0  0  0  0  0
   67.3283  -34.9370   26.7310 H   0  0  0  0  0  0
   69.0542  -32.9484   25.3866 C   0  0  0  0  0  0
   70.2588  -32.2914   25.2554 C   0  0  0  0  0  0
   71.1281  -32.7974   26.2087 N   0  0  0  0  0  0
   72.0660  -32.4309   26.2914 H   0  0  0  0  0  0
   70.7530  -31.1959   24.3778 C   0  0  0  0  0  0
   70.0787  -30.8159   23.3944 O   0  0  0  0  0  0
   71.8475  -30.6553   24.6463 O   0  5  0  0  0  0
   67.8026  -32.6559   24.6079 C   0  0  0  0  0  0
   67.0899  -33.4756   24.6966 H   0  0  0  0  0  0
   68.0409  -32.5894   23.5464 H   0  0  0  0  0  0
   67.1375  -31.3414   25.0562 C   0  0  0  0  0  0
   66.3724  -31.0542   24.3350 H   0  0  0  0  0  0
   67.8777  -30.5419   25.0410 H   0  0  0  0  0  0
   66.5009  -31.4145   26.4502 C   0  0  0  0  0  0
   66.2307  -30.4084   26.7762 H   0  0  0  0  0  0
   67.1988  -31.8289   27.1774 H   0  0  0  0  0  0
   65.3380  -32.2209   26.3521 O   0  0  0  0  0  0
   64.4729  -32.2537   27.4171 C   0  0  0  0  0  0
   64.8247  -31.8522   28.7260 C   0  0  0  0  0  0
   63.8936  -31.9811   29.7718 C   0  0  0  0  0  0
   62.6133  -32.5262   29.5320 C   0  0  0  0  0  0
   62.2473  -32.8907   28.2208 C   0  0  0  0  0  0
   63.1754  -32.7480   27.1737 C   0  0  0  0  0  0
   62.9009  -33.0543   26.1746 H   0  0  0  0  0  0
   61.2705  -33.3052   28.0185 H   0  0  0  0  0  0
   61.6543  -32.7585   30.6832 C   0  0  0  0  0  0
   61.8456  -33.9719   31.1781 F   0  0  0  0  0  0
   60.3934  -32.7036   30.2824 F   0  0  0  0  0  0
   61.8464  -31.8543   31.6406 F   0  0  0  0  0  0
   64.1819  -31.6984   30.7734 H   0  0  0  0  0  0
   65.8064  -31.4665   28.9551 H   0  0  0  0  0  0
   71.9996  -34.4784   28.3889 H   0  0  0  0  0  0
   70.4545  -36.1349   29.4410 H   0  0  0  0  0  0
  1  2  1  0  0  0
  2  7  1  0  0  0
  2  3  2  0  0  0
  3  4  1  0  0  0
  3 41  1  0  0  0
  4  5  2  0  0  0
  4 40  1  0  0  0
  5 11  1  0  0  0
  5  6  1  0  0  0
  6  7  2  0  0  0
  6  9  1  0  0  0
  7  8  1  0  0  0
  9 10  2  0  0  0
  9 16  1  0  0  0
 10 11  1  0  0  0
 10 13  1  0  0  0
 11 12  1  0  0  0
 13 14  2  0  0  0
 13 15  1  0  0  0
 16 17  1  0  0  0
 16 18  1  0  0  0
 16 19  1  0  0  0
 19 20  1  0  0  0
 19 21  1  0  0  0
 19 22  1  0  0  0
 22 23  1  0  0  0
 22 24  1  0  0  0
 22 25  1  0  0  0
 25 26  1  0  0  0
 26 31  1  0  0  0
 26 27  2  0  0  0
 27 28  1  0  0  0
 27 39  1  0  0  0
 28 29  2  0  0  0
 28 38  1  0  0  0
 29 30  1  0  0  0
 29 34  1  0  0  0
 30 31  2  0  0  0
 30 33  1  0  0  0
 31 32  1  0  0  0
 34 35  1  0  0  0
 34 36  1  0  0  0
 34 37  1  0  0  0
M  CHG  1  15  -1
M  END
> <s_m_source_file>
ligprep_mcl1.smi

> <i_m_source_file_index>
10

> <i_lp_mmshare_version>
53161

> <i_f3d_flags>
0

> <s_epik_input>
W2NIXTFbY0hdW2NIXVtjSF1jKGMxMiljKGMoW25IXTIpQyg9TylbT0hdKVtDSDJdW0NIMl1bQ0gyXU9jM1tjSF1bY0hdYyhDKEYpKEYpRilbY0hdW2NIXTM=

> <s_epik_cmdline>
J2VwaWtfcHl0aG9uJywgJy1waHQnLCAnMC4wJywgJy1waCcsICc3LjQnLCAnLXRuJywgJzgnLCAnLW1hJywgJzUwMCcsICctaW1hZScsICc8aW5maWxlLm1hZT4nLCAnLW9tYWUnLCAnPG91dGZpbGUubWFlPic=

> <r_lp_tautomer_probability>
1

> <r_epik_Ionization_Penalty>
  0.0005

> <r_epik_Ionization_Penalty_Charging>
  0.0005

> <r_epik_Ionization_Penalty_Neutral>
  0.0000

> <r_epik_State_Penalty>
 -0.0000

> <r_epik_Charging_Adjusted_Penalty>
0.000454155

> <i_epik_Tot_Q>
-1

> <i_epik_Tot_abs_Q>
1

> <s_lp_Force_Field>
S-OPLS

> <r_lp_Energy>
33.8944

> <b_lp_Chiralities_Consistent>
1

> <s_lp_Variant>
lig_34-1

> <s_i_glide_gridfile>
glide-grid_MCL1-4HW3

> <i_i_glide_lignum>
10

> <i_i_glide_rotatable_bonds>
7

> <r_i_docking_score>
-9.02455292953072

> <r_i_glide_ligand_efficiency>
-0.347098189597335

> <r_i_glide_ligand_efficiency_sa>
-1.02827702091668

> <r_i_glide_ligand_efficiency_ln>
-2.11938664352687

> <r_i_glide_gscore>
-9.02455292953072

> <r_i_glide_lipo>
-4.81065359284811

> <r_i_glide_hbond>
-0.397676635603822

> <r_i_glide_metal>
-0

> <r_i_glide_rewards>
-2.49547862624787

> <r_i_glide_evdw>
-35.7155113220215

> <r_i_glide_ecoul>
-3.4004864692688

> <r_i_glide_erotb>
1.02382038153534

> <r_i_glide_esite>
-0.048715919874865

> <r_i_glide_emodel>
-65.3940236370649

> <r_i_glide_energy>
-39.1159977912903

> <r_i_glide_einternal>
3.49401903152466

> <i_i_glide_confnum>
13

> <i_i_glide_posenum>
37

> <r_i_glide_eff_state_penalty>
-0

> <r_i_glide_rmsd>
0.103779631730213

> <s_glide_core_constrain_type>
snapped_core_restrain

$$$$
lig_35
                    3D
 Schrodinger Suite 2022-3.
 41 43  0  0  1  0            999 V2000
   68.0607  -36.5057   28.4467 H   0  0  0  0  0  0
   68.7411  -35.7769   28.0305 C   0  0  0  0  0  0
   70.0546  -35.6749   28.5286 C   0  0  0  0  0  0
   70.9362  -34.7193   27.9870 C   0  0  0  0  0  0
   70.4958  -33.8782   26.9459 C   0  0  0  0  0  0
   69.1759  -33.9648   26.4189 C   0  0  0  0  0  0
   68.3080  -34.9274   26.9904 C   0  0  0  0  0  0
   67.2983  -35.0125   26.6190 H   0  0  0  0  0  0
   69.0447  -32.9756   25.3817 C   0  0  0  0  0  0
   70.2532  -32.3209   25.2897 C   0  0  0  0  0  0
   71.1070  -32.8624   26.2387 N   0  0  0  0  0  0
   72.0444  -32.5005   26.3476 H   0  0  0  0  0  0
   70.7653  -31.1984   24.4556 C   0  0  0  0  0  0
   71.8467  -30.6548   24.7751 O   0  0  0  0  0  0
   70.1165  -30.7982   23.4628 O   0  5  0  0  0  0
   67.8072  -32.6530   24.5922 C   0  0  0  0  0  0
   67.0758  -33.4560   24.6696 H   0  0  0  0  0  0
   68.0572  -32.5808   23.5318 H   0  0  0  0  0  0
   67.1601  -31.3312   25.0440 C   0  0  0  0  0  0
   66.3810  -31.0514   24.3351 H   0  0  0  0  0  0
   67.9039  -30.5356   25.0100 H   0  0  0  0  0  0
   66.5509  -31.3909   26.4513 C   0  0  0  0  0  0
   66.2869  -30.3818   26.7744 H   0  0  0  0  0  0
   67.2566  -31.8021   27.1724 H   0  0  0  0  0  0
   65.3954  -32.2020   26.3685 O   0  0  0  0  0  0
   64.5234  -32.2100   27.4282 C   0  0  0  0  0  0
   63.2346  -32.7156   27.1783 C   0  0  0  0  0  0
   62.2974  -32.8302   28.2174 C   0  0  0  0  0  0
   62.6404  -32.4216   29.5181 C   0  0  0  0  0  0
   63.9095  -31.8553   29.7765 C   0  0  0  0  0  0
   64.8529  -31.7643   28.7316 C   0  0  0  0  0  0
   65.8324  -31.3641   28.9458 H   0  0  0  0  0  0
   64.2787  -31.3668   31.1648 C   0  0  0  0  0  0
   65.2206  -30.8147   31.1545 H   0  0  0  0  0  0
   64.3856  -32.2120   31.8460 H   0  0  0  0  0  0
   63.5051  -30.7049   31.5548 H   0  0  0  0  0  0
   61.4886  -32.6519   30.7782 Cl  0  0  0  0  0  0
   61.3241  -33.2515   28.0181 H   0  0  0  0  0  0
   62.9758  -33.0535   26.1846 H   0  0  0  0  0  0
   71.9426  -34.6324   28.3660 H   0  0  0  0  0  0
   70.3831  -36.3265   29.3262 H   0  0  0  0  0  0
  1  2  1  0  0  0
  2  7  1  0  0  0
  2  3  2  0  0  0
  3  4  1  0  0  0
  3 41  1  0  0  0
  4  5  2  0  0  0
  4 40  1  0  0  0
  5 11  1  0  0  0
  5  6  1  0  0  0
  6  7  2  0  0  0
  6  9  1  0  0  0
  7  8  1  0  0  0
  9 10  2  0  0  0
  9 16  1  0  0  0
 10 11  1  0  0  0
 10 13  1  0  0  0
 11 12  1  0  0  0
 13 14  2  0  0  0
 13 15  1  0  0  0
 16 17  1  0  0  0
 16 18  1  0  0  0
 16 19  1  0  0  0
 19 20  1  0  0  0
 19 21  1  0  0  0
 19 22  1  0  0  0
 22 23  1  0  0  0
 22 24  1  0  0  0
 22 25  1  0  0  0
 25 26  1  0  0  0
 26 31  1  0  0  0
 26 27  2  0  0  0
 27 28  1  0  0  0
 27 39  1  0  0  0
 28 29  2  0  0  0
 28 38  1  0  0  0
 29 30  1  0  0  0
 29 37  1  0  0  0
 30 31  2  0  0  0
 30 33  1  0  0  0
 31 32  1  0  0  0
 33 34  1  0  0  0
 33 35  1  0  0  0
 33 36  1  0  0  0
M  CHG  1  15  -1
M  END
> <s_m_source_file>
ligprep_mcl1.smi

> <i_m_source_file_index>
11

> <i_lp_mmshare_version>
53161

> <i_f3d_flags>
0

> <s_epik_input>
W2NIXTFbY0hdW2NIXVtjSF1jKGMxMiljKGMoW25IXTIpQyg9TylbT0hdKVtDSDJdW0NIMl1bQ0gyXU9jM1tjSF1bY0hdYyhDbCljKFtjSF0zKVtDSDNd

> <s_epik_cmdline>
J2VwaWtfcHl0aG9uJywgJy1waHQnLCAnMC4wJywgJy1waCcsICc3LjQnLCAnLXRuJywgJzgnLCAnLW1hJywgJzUwMCcsICctaW1hZScsICc8aW5maWxlLm1hZT4nLCAnLW9tYWUnLCAnPG91dGZpbGUubWFlPic=

> <r_lp_tautomer_probability>
1

> <r_epik_Ionization_Penalty>
  0.0005

> <r_epik_Ionization_Penalty_Charging>
  0.0005

> <r_epik_Ionization_Penalty_Neutral>
  0.0000

> <r_epik_State_Penalty>
 -0.0000

> <r_epik_Charging_Adjusted_Penalty>
0.000518745

> <i_epik_Tot_Q>
-1

> <i_epik_Tot_abs_Q>
1

> <s_lp_Force_Field>
S-OPLS

> <r_lp_Energy>
33.8968

> <b_lp_Chiralities_Consistent>
1

> <s_lp_Variant>
lig_35-1

> <s_i_glide_gridfile>
glide-grid_MCL1-4HW3

> <i_i_glide_lignum>
11

> <i_i_glide_rotatable_bonds>
6

> <r_i_docking_score>
-9.02347453125589

> <r_i_glide_ligand_efficiency>
-0.375978105468995

> <r_i_glide_ligand_efficiency_sa>
-1.08450852096643

> <r_i_glide_ligand_efficiency_ln>
-2.15973151559525

> <r_i_glide_gscore>
-9.02347453125589

> <r_i_glide_lipo>
-5.15894676804638

> <r_i_glide_hbond>
-0.420545604266378

> <r_i_glide_metal>
-0

> <r_i_glide_rewards>
-1.80085345427995

> <r_i_glide_evdw>
-41.7662124633789

> <r_i_glide_ecoul>
-3.1840341091156

> <r_i_glide_erotb>
0.968452154908552

> <r_i_glide_esite>
-0.0456651200354573

> <r_i_glide_emodel>
-76.4515871305577

> <r_i_glide_energy>
-44.9502465724945

> <r_i_glide_einternal>
1.61527526378632

> <i_i_glide_confnum>
5

> <i_i_glide_posenum>
22

> <r_i_glide_eff_state_penalty>
-0

> <r_i_glide_rmsd>
0.0801659943205655

> <s_glide_core_constrain_type>
snapped_core_restrain

$$$$
lig_49
                    3D
 Schrodinger Suite 2022-3.
 41 43  0  0  1  0            999 V2000
   70.6510  -36.0628   29.5143 H   0  0  0  0  0  0
   70.2909  -35.4358   28.7007 C   0  0  0  0  0  0
   71.1741  -34.6273   27.9590 C   0  0  0  0  0  0
   70.6740  -33.8213   26.9140 C   0  0  0  0  0  0
   69.2938  -33.7929   26.5624 C   0  0  0  0  0  0
   68.4318  -34.5898   27.3556 C   0  0  0  0  0  0
   68.9177  -35.4085   28.3928 C   0  0  0  0  0  0
   68.2236  -36.0018   28.9613 H   0  0  0  0  0  0
   66.7441  -34.5446   27.0851 Cl  0  0  0  0  0  0
   69.1312  -32.8922   25.4323 C   0  0  0  0  0  0
   70.3871  -32.3948   25.1461 C   0  0  0  0  0  0
   71.2858  -32.9459   26.0448 N   0  0  0  0  0  0
   72.2653  -32.6988   26.0104 H   0  0  0  0  0  0
   70.9391  -31.4316   24.1529 C   0  0  0  0  0  0
   70.2287  -30.9561   23.2314 O   0  0  0  0  0  0
   72.1390  -31.0921   24.2665 O   0  5  0  0  0  0
   67.8761  -32.5450   24.6822 C   0  0  0  0  0  0
   67.1301  -33.3329   24.7480 H   0  0  0  0  0  0
   68.1051  -32.4777   23.6209 H   0  0  0  0  0  0
   67.2774  -31.2025   25.1223 C   0  0  0  0  0  0
   66.5559  -30.8724   24.3764 H   0  0  0  0  0  0
   68.0589  -30.4383   25.1384 H   0  0  0  0  0  0
   66.5744  -31.2399   26.4886 C   0  0  0  0  0  0
   66.3365  -30.2183   26.8065 H   0  0  0  0  0  0
   67.2332  -31.6729   27.2435 H   0  0  0  0  0  0
   65.3824  -32.0025   26.3489 O   0  0  0  0  0  0
   64.5350  -32.0984   27.4273 C   0  0  0  0  0  0
   63.2684  -32.6660   27.1796 C   0  0  0  0  0  0
   62.3366  -32.8214   28.2221 C   0  0  0  0  0  0
   62.6726  -32.4239   29.5275 C   0  0  0  0  0  0
   63.9391  -31.8540   29.7990 C   0  0  0  0  0  0
   64.8698  -31.6968   28.7466 C   0  0  0  0  0  0
   65.8379  -31.2646   28.9728 H   0  0  0  0  0  0
   64.3187  -31.3959   31.1982 C   0  0  0  0  0  0
   65.3109  -30.9294   31.2084 H   0  0  0  0  0  0
   64.3312  -32.2423   31.8887 H   0  0  0  0  0  0
   63.6029  -30.6599   31.5699 H   0  0  0  0  0  0
   61.5119  -32.6528   30.7780 Cl  0  0  0  0  0  0
   61.3604  -33.2347   28.0279 H   0  0  0  0  0  0
   63.0118  -32.9927   26.1843 H   0  0  0  0  0  0
   72.2329  -34.6188   28.1956 H   0  0  0  0  0  0
  1  2  1  0  0  0
  2  7  1  0  0  0
  2  3  2  0  0  0
  3  4  1  0  0  0
  3 41  1  0  0  0
  4 12  1  0  0  0
  4  5  2  0  0  0
  5  6  1  0  0  0
  5 10  1  0  0  0
  6  7  2  0  0  0
  6  9  1  0  0  0
  7  8  1  0  0  0
 10 11  2  0  0  0
 10 17  1  0  0  0
 11 12  1  0  0  0
 11 14  1  0  0  0
 12 13  1  0  0  0
 14 15  2  0  0  0
 14 16  1  0  0  0
 17 18  1  0  0  0
 17 19  1  0  0  0
 17 20  1  0  0  0
 20 21  1  0  0  0
 20 22  1  0  0  0
 20 23  1  0  0  0
 23 24  1  0  0  0
 23 25  1  0  0  0
 23 26  1  0  0  0
 26 27  1  0  0  0
 27 32  1  0  0  0
 27 28  2  0  0  0
 28 29  1  0  0  0
 28 40  1  0  0  0
 29 30  2  0  0  0
 29 39  1  0  0  0
 30 31  1  0  0  0
 30 38  1  0  0  0
 31 32  2  0  0  0
 31 34  1  0  0  0
 32 33  1  0  0  0
 34 35  1  0  0  0
 34 36  1  0  0  0
 34 37  1  0  0  0
M  CHG  1  16  -1
M  END
> <s_m_source_file>
ligprep_mcl1.smi

> <i_m_source_file_index>
25

> <i_lp_mmshare_version>
53161

> <i_f3d_flags>
0

> <s_epik_input>
W2NIXTFbY0hdW2NIXWMoQ2wpYyhjMTIpYyhjKFtuSF0yKUMoPU8pW09IXSlbQ0gyXVtDSDJdW0NIMl1PYzNbY0hdW2NIXWMoQ2wpYyhbY0hdMylbQ0gzXQ==

> <s_epik_cmdline>
J2VwaWtfcHl0aG9uJywgJy1waHQnLCAnMC4wJywgJy1waCcsICc3LjQnLCAnLXRuJywgJzgnLCAnLW1hJywgJzUwMCcsICctaW1hZScsICc8aW5maWxlLm1hZT4nLCAnLW9tYWUnLCAnPG91dGZpbGUubWFlPic=

> <r_lp_tautomer_probability>
1

> <r_epik_Ionization_Penalty>
  0.0002

> <r_epik_Ionization_Penalty_Charging>
  0.0002

> <r_epik_Ionization_Penalty_Neutral>
  0.0000

> <r_epik_State_Penalty>
 -0.0000

> <r_epik_Charging_Adjusted_Penalty>
0.000204149

> <i_epik_Tot_Q>
-1

> <i_epik_Tot_abs_Q>
1

> <s_lp_Force_Field>
S-OPLS

> <r_lp_Energy>
34.2905

> <b_lp_Chiralities_Consistent>
1

> <s_lp_Variant>
lig_49-1

> <s_i_glide_gridfile>
glide-grid_MCL1-4HW3

> <i_i_glide_lignum>
25

> <i_i_glide_rotatable_bonds>
6

> <r_i_docking_score>
-8.85526022829137

> <r_i_glide_ligand_efficiency>
-0.354210409131655

> <r_i_glide_ligand_efficiency_sa>
-1.03571751824931

> <r_i_glide_ligand_efficiency_ln>
-2.09896204483999

> <r_i_glide_gscore>
-8.85526022829137

> <r_i_glide_lipo>
-5.33999391397613

> <r_i_glide_hbond>
-0.212258783643782

> <r_i_glide_metal>
-0

> <r_i_glide_rewards>
-1.64587465612778

> <r_i_glide_evdw>
-40.1642227172852

> <r_i_glide_ecoul>
-2.80661201477051

> <r_i_glide_erotb>
0.816509876504559

> <r_i_glide_esite>
-0.0444398129684015

> <r_i_glide_emodel>
-69.3692547693996

> <r_i_glide_energy>
-42.9708347320557

> <r_i_glide_einternal>
3.73817372322083

> <i_i_glide_confnum>
8

> <i_i_glide_posenum>
4

> <r_i_glide_eff_state_penalty>
-0

> <r_i_glide_rmsd>
0.103307774475428

> <s_glide_core_constrain_type>
snapped_core_restrain

$$$$
lig_52
                    3D
 Schrodinger Suite 2022-3.
 41 43  0  0  1  0            999 V2000
   67.4972  -34.9159   26.8969 H   0  0  0  0  0  0
   68.5252  -34.7634   27.1894 C   0  0  0  0  0  0
   69.0568  -35.4978   28.2676 C   0  0  0  0  0  0
   70.3964  -35.3071   28.6559 C   0  0  0  0  0  0
   71.2095  -34.3825   27.9795 C   0  0  0  0  0  0
   70.6719  -33.6599   26.9049 C   0  0  0  0  0  0
   69.3218  -33.8312   26.4819 C   0  0  0  0  0  0
   69.0937  -32.9429   25.3785 C   0  0  0  0  0  0
   70.2765  -32.2743   25.1420 C   0  0  0  0  0  0
   71.2061  -32.7033   26.0707 N   0  0  0  0  0  0
   72.1374  -32.3091   26.0814 H   0  0  0  0  0  0
   70.7143  -31.2321   24.1770 C   0  0  0  0  0  0
   69.9998  -30.9353   23.1941 O   0  0  0  0  0  0
   71.8046  -30.6543   24.3750 O   0  5  0  0  0  0
   67.8031  -32.7133   24.6442 C   0  0  0  0  0  0
   67.1096  -33.5420   24.7997 H   0  0  0  0  0  0
   67.9918  -32.6894   23.5714 H   0  0  0  0  0  0
   67.1390  -31.3877   25.0585 C   0  0  0  0  0  0
   66.3620  -31.1290   24.3404 H   0  0  0  0  0  0
   67.8737  -30.5853   25.0046 H   0  0  0  0  0  0
   66.5244  -31.4287   26.4620 C   0  0  0  0  0  0
   66.2606  -30.4172   26.7770 H   0  0  0  0  0  0
   67.2317  -31.8376   27.1841 H   0  0  0  0  0  0
   65.3658  -32.2399   26.3782 O   0  0  0  0  0  0
   64.4938  -32.2539   27.4370 C   0  0  0  0  0  0
   63.1994  -32.7402   27.1787 C   0  0  0  0  0  0
   62.2618  -32.8548   28.2195 C   0  0  0  0  0  0
   62.6071  -32.4525   29.5232 C   0  0  0  0  0  0
   63.8837  -31.9081   29.7878 C   0  0  0  0  0  0
   64.8299  -31.8265   28.7440 C   0  0  0  0  0  0
   65.8141  -31.4416   28.9628 H   0  0  0  0  0  0
   64.2530  -31.4187   31.1785 C   0  0  0  0  0  0
   65.2410  -30.9580   31.1904 H   0  0  0  0  0  0
   64.2589  -32.2495   31.8833 H   0  0  0  0  0  0
   63.5356  -30.6766   31.5257 H   0  0  0  0  0  0
   61.4461  -32.6574   30.7782 Cl  0  0  0  0  0  0
   61.2807  -33.2604   28.0162 H   0  0  0  0  0  0
   62.9351  -33.0564   26.1804 H   0  0  0  0  0  0
   72.2325  -34.2316   28.2852 H   0  0  0  0  0  0
   71.0458  -36.1894   29.9781 Cl  0  0  0  0  0  0
   68.4370  -36.2066   28.7982 H   0  0  0  0  0  0
  1  2  1  0  0  0
  2  7  1  0  0  0
  2  3  2  0  0  0
  3  4  1  0  0  0
  3 41  1  0  0  0
  4  5  2  0  0  0
  4 40  1  0  0  0
  5  6  1  0  0  0
  5 39  1  0  0  0
  6 10  1  0  0  0
  6  7  2  0  0  0
  7  8  1  0  0  0
  8  9  2  0  0  0
  8 15  1  0  0  0
  9 10  1  0  0  0
  9 12  1  0  0  0
 10 11  1  0  0  0
 12 13  2  0  0  0
 12 14  1  0  0  0
 15 16  1  0  0  0
 15 17  1  0  0  0
 15 18  1  0  0  0
 18 19  1  0  0  0
 18 20  1  0  0  0
 18 21  1  0  0  0
 21 22  1  0  0  0
 21 23  1  0  0  0
 21 24  1  0  0  0
 24 25  1  0  0  0
 25 30  1  0  0  0
 25 26  2  0  0  0
 26 27  1  0  0  0
 26 38  1  0  0  0
 27 28  2  0  0  0
 27 37  1  0  0  0
 28 29  1  0  0  0
 28 36  1  0  0  0
 29 30  2  0  0  0
 29 32  1  0  0  0
 30 31  1  0  0  0
 32 33  1  0  0  0
 32 34  1  0  0  0
 32 35  1  0  0  0
M  CHG  1  14  -1
M  END
> <s_m_source_file>
ligprep_mcl1.smi

> <i_m_source_file_index>
28

> <i_lp_mmshare_version>
53161

> <i_f3d_flags>
0

> <s_epik_input>
W2NIXTFjKENsKVtjSF1bY0hdYyhjMTIpYyhjKFtuSF0yKUMoPU8pW09IXSlbQ0gyXVtDSDJdW0NIMl1PYzNbY0hdW2NIXWMoQ2wpYyhbY0hdMylbQ0gzXQ==

> <s_epik_cmdline>
J2VwaWtfcHl0aG9uJywgJy1waHQnLCAnMC4wJywgJy1waCcsICc3LjQnLCAnLXRuJywgJzgnLCAnLW1hJywgJzUwMCcsICctaW1hZScsICc8aW5maWxlLm1hZT4nLCAnLW9tYWUnLCAnPG91dGZpbGUubWFlPic=

> <r_lp_tautomer_probability>
1

> <r_epik_Ionization_Penalty>
  0.0003

> <r_epik_Ionization_Penalty_Charging>
  0.0003

> <r_epik_Ionization_Penalty_Neutral>
  0.0000

> <r_epik_State_Penalty>
 -0.0000

> <r_epik_Charging_Adjusted_Penalty>
0.000270667

> <i_epik_Tot_Q>
-1

> <i_epik_Tot_abs_Q>
1

> <s_lp_Force_Field>
S-OPLS

> <r_lp_Energy>
32.6583

> <b_lp_Chiralities_Consistent>
1

> <s_lp_Variant>
lig_52-1

> <s_i_glide_gridfile>
glide-grid_MCL1-4HW3

> <i_i_glide_lignum>
28

> <i_i_glide_rotatable_bonds>
6

> <r_i_docking_score>
-8.77825293635759

> <r_i_glide_ligand_efficiency>
-0.351130117454304

> <r_i_glide_ligand_efficiency_sa>
-1.02671069075553

> <r_i_glide_ligand_efficiency_ln>
-2.08070900892937

> <r_i_glide_gscore>
-8.77825293635759

> <r_i_glide_lipo>
-5.1109394440736

> <r_i_glide_hbond>
-0.386769041290954

> <r_i_glide_metal>
-0

> <r_i_glide_rewards>
-1.55784645575001

> <r_i_glide_evdw>
-40.2873229980469

> <r_i_glide_ecoul>
-3.14994215965271

> <r_i_glide_erotb>
0.816509876504559

> <r_i_glide_esite>
-0.052350397897336

> <r_i_glide_emodel>
-65.8585964786289

> <r_i_glide_energy>
-43.4372651576996

> <r_i_glide_einternal>
1.34690046310425

> <i_i_glide_confnum>
6

> <i_i_glide_posenum>
2

> <r_i_glide_eff_state_penalty>
-0

> <r_i_glide_rmsd>
0.103766722064457

> <s_glide_core_constrain_type>
snapped_core_restrain

$$$$
lig_48
                    3D
 Schrodinger Suite 2022-3.
 42 45  0  0  1  0            999 V2000
   67.9637  -36.3633   28.5157 H   0  0  0  0  0  0
   68.6642  -35.6502   28.1042 C   0  0  0  0  0  0
   69.9647  -35.5552   28.6358 C   0  0  0  0  0  0
   70.8733  -34.6213   28.1010 C   0  0  0  0  0  0
   70.4700  -33.7962   27.0339 C   0  0  0  0  0  0
   69.1656  -33.8790   26.4687 C   0  0  0  0  0  0
   68.2721  -34.8219   27.0328 C   0  0  0  0  0  0
   67.2699  -34.9033   26.6365 H   0  0  0  0  0  0
   69.0740  -32.9075   25.4105 C   0  0  0  0  0  0
   70.2879  -32.2552   25.3529 C   0  0  0  0  0  0
   71.1110  -32.7988   26.3263 N   0  0  0  0  0  0
   72.0487  -32.4438   26.4561 H   0  0  0  0  0  0
   70.8406  -31.1418   24.5343 C   0  0  0  0  0  0
   71.9647  -30.6794   24.8276 O   0  0  0  0  0  0
   70.1889  -30.6693   23.5757 O   0  5  0  0  0  0
   67.8582  -32.6096   24.5740 C   0  0  0  0  0  0
   68.1475  -32.5083   23.5278 H   0  0  0  0  0  0
   67.1577  -33.4453   24.6049 H   0  0  0  0  0  0
   67.1408  -31.3231   25.0232 C   0  0  0  0  0  0
   67.8553  -30.5009   25.0005 H   0  0  0  0  0  0
   66.3574  -31.0592   24.3122 H   0  0  0  0  0  0
   66.5384  -31.4135   26.4316 C   0  0  0  0  0  0
   67.2715  -31.8414   27.1102 H   0  0  0  0  0  0
   66.2801  -30.4129   26.7823 H   0  0  0  0  0  0
   65.3845  -32.2343   26.3881 O   0  0  0  0  0  0
   64.5189  -32.2359   27.4616 C   0  0  0  0  0  0
   63.2300  -32.7341   27.1785 C   0  0  0  0  0  0
   62.2608  -32.8722   28.1868 C   0  0  0  0  0  0
   62.5556  -32.4600   29.4945 C   0  0  0  0  0  0
   63.8158  -31.9285   29.7815 C   0  0  0  0  0  0
   64.8449  -31.8229   28.7927 C   0  0  0  0  0  0
   66.0186  -31.3797   29.5022 C   0  0  0  0  0  0
   65.6645  -31.1234   30.7992 C   0  0  0  0  0  0
   64.3399  -31.4581   30.9650 N   0  0  0  0  0  0
   63.8543  -31.3939   31.8478 H   0  0  0  0  0  0
   66.2548  -30.7533   31.6239 H   0  0  0  0  0  0
   67.0056  -31.2461   29.0984 H   0  0  0  0  0  0
   61.8103  -32.5473   30.2713 H   0  0  0  0  0  0
   61.2885  -33.2793   27.9496 H   0  0  0  0  0  0
   62.9945  -33.0540   26.1727 H   0  0  0  0  0  0
   71.8699  -34.5361   28.5066 H   0  0  0  0  0  0
   70.2621  -36.1949   29.4549 H   0  0  0  0  0  0
  1  2  1  0  0  0
  2  7  1  0  0  0
  2  3  2  0  0  0
  3  4  1  0  0  0
  3 42  1  0  0  0
  4  5  2  0  0  0
  4 41  1  0  0  0
  5 11  1  0  0  0
  5  6  1  0  0  0
  6  7  2  0  0  0
  6  9  1  0  0  0
  7  8  1  0  0  0
  9 10  2  0  0  0
  9 16  1  0  0  0
 10 11  1  0  0  0
 10 13  1  0  0  0
 11 12  1  0  0  0
 13 14  2  0  0  0
 13 15  1  0  0  0
 16 17  1  0  0  0
 16 18  1  0  0  0
 16 19  1  0  0  0
 19 20  1  0  0  0
 19 21  1  0  0  0
 19 22  1  0  0  0
 22 23  1  0  0  0
 22 24  1  0  0  0
 22 25  1  0  0  0
 25 26  1  0  0  0
 26 31  1  0  0  0
 26 27  2  0  0  0
 27 28  1  0  0  0
 27 40  1  0  0  0
 28 29  2  0  0  0
 28 39  1  0  0  0
 29 30  1  0  0  0
 29 38  1  0  0  0
 30 34  1  0  0  0
 30 31  2  0  0  0
 31 32  1  0  0  0
 32 33  2  0  0  0
 32 37  1  0  0  0
 33 34  1  0  0  0
 33 36  1  0  0  0
 34 35  1  0  0  0
M  CHG  1  15  -1
M  END
> <s_m_source_file>
ligprep_mcl1.smi

> <i_m_source_file_index>
24

> <i_lp_mmshare_version>
53161

> <i_f3d_flags>
0

> <s_epik_input>
W2NIXTFbY0hdW2NIXVtjSF1jKGMxMiljKGMoW25IXTIpQyg9TylbT0hdKVtDSDJdW0NIMl1bQ0gyXU9jKFtjSF1bY0hdW2NIXTMpYyhjMzQpW2NIXVtjSF1bbkhdNA==

> <s_epik_cmdline>
J2VwaWtfcHl0aG9uJywgJy1waHQnLCAnMC4wJywgJy1waCcsICc3LjQnLCAnLXRuJywgJzgnLCAnLW1hJywgJzUwMCcsICctaW1hZScsICc8aW5maWxlLm1hZT4nLCAnLW9tYWUnLCAnPG91dGZpbGUubWFlPic=

> <r_lp_tautomer_probability>
1

> <r_epik_Ionization_Penalty>
  0.0006

> <r_epik_Ionization_Penalty_Charging>
  0.0006

> <r_epik_Ionization_Penalty_Neutral>
  0.0000

> <r_epik_State_Penalty>
 -0.0000

> <r_epik_Charging_Adjusted_Penalty>
0.000566237

> <i_epik_Tot_Q>
-1

> <i_epik_Tot_abs_Q>
1

> <s_lp_Force_Field>
S-OPLS

> <r_lp_Energy>
41.7078

> <b_lp_Chiralities_Consistent>
1

> <s_lp_Variant>
lig_48-1

> <s_i_glide_gridfile>
glide-grid_MCL1-4HW3

> <i_i_glide_lignum>
24

> <i_i_glide_rotatable_bonds>
6

> <r_i_docking_score>
-8.75102801602622

> <r_i_glide_ligand_efficiency>
-0.350041120641049

> <r_i_glide_ligand_efficiency_sa>
-1.02352644476013

> <r_i_glide_ligand_efficiency_ln>
-2.07425588694581

> <r_i_glide_gscore>
-8.75102801602622

> <r_i_glide_lipo>
-5.19351457106279

> <r_i_glide_hbond>
-0.464762221107885

> <r_i_glide_metal>
-0

> <r_i_glide_rewards>
-1.53617786363636

> <r_i_glide_evdw>
-41.7840309143066

> <r_i_glide_ecoul>
-2.88224148750305

> <r_i_glide_erotb>
1.01754514821415

> <r_i_glide_esite>
-0.0525807395925376

> <r_i_glide_emodel>
-71.4328890007724

> <r_i_glide_energy>
-44.6662724018097

> <r_i_glide_einternal>
0.140335068106651

> <i_i_glide_confnum>
5

> <i_i_glide_posenum>
41

> <r_i_glide_eff_state_penalty>
-0

> <r_i_glide_rmsd>
0.108107483932946

> <s_glide_core_constrain_type>
snapped_core_restrain

$$$$
lig_63
                    3D
 Schrodinger Suite 2022-3.
 43 45  0  0  1  0            999 V2000
   66.9362  -34.4423   26.6117 H   0  0  0  0  0  0
   67.9190  -34.5696   27.0416 C   0  0  0  0  0  0
   68.0750  -35.4746   28.0823 C   0  0  0  0  0  0
   69.3453  -35.6808   28.6137 C   0  0  0  0  0  0
   70.4647  -34.9400   28.1857 C   0  0  0  0  0  0
   70.2890  -34.0350   27.1383 C   0  0  0  0  0  0
   69.0145  -33.8379   26.5198 C   0  0  0  0  0  0
   69.0708  -32.9001   25.4290 C   0  0  0  0  0  0
   70.3543  -32.4131   25.2558 C   0  0  0  0  0  0
   71.5215  -33.0692   26.3845 S   0  0  0  0  0  0
   70.9014  -31.4338   24.2875 C   0  0  0  0  0  0
   70.1632  -30.9806   23.3856 O   0  0  0  0  0  0
   72.0856  -31.0507   24.3977 O   0  5  0  0  0  0
   67.8553  -32.5315   24.6308 C   0  0  0  0  0  0
   67.1034  -33.3195   24.6676 H   0  0  0  0  0  0
   68.1118  -32.4554   23.5740 H   0  0  0  0  0  0
   67.2374  -31.2010   25.0944 C   0  0  0  0  0  0
   66.4946  -30.8856   24.3617 H   0  0  0  0  0  0
   68.0081  -30.4300   25.0983 H   0  0  0  0  0  0
   66.5701  -31.2624   26.4776 C   0  0  0  0  0  0
   66.2832  -30.2557   26.7857 H   0  0  0  0  0  0
   67.2551  -31.6596   27.2250 H   0  0  0  0  0  0
   65.4230  -32.0872   26.3728 O   0  0  0  0  0  0
   64.5534  -32.1522   27.4354 C   0  0  0  0  0  0
   63.2877  -32.7100   27.1768 C   0  0  0  0  0  0
   62.3366  -32.8749   28.2013 C   0  0  0  0  0  0
   62.6473  -32.4435   29.5103 C   0  0  0  0  0  0
   63.9043  -31.8521   29.7809 C   0  0  0  0  0  0
   64.8549  -31.7143   28.7459 C   0  0  0  0  0  0
   65.8152  -31.2774   28.9735 H   0  0  0  0  0  0
   64.2498  -31.3684   31.1781 C   0  0  0  0  0  0
   65.2201  -30.8706   31.2012 H   0  0  0  0  0  0
   64.2836  -32.2063   31.8749 H   0  0  0  0  0  0
   63.5028  -30.6557   31.5308 H   0  0  0  0  0  0
   61.4942  -32.6559   30.7792 Cl  0  0  0  0  0  0
   61.0138  -33.5502   27.8862 C   0  0  0  0  0  0
   61.0011  -33.9318   26.8632 H   0  0  0  0  0  0
   60.8440  -34.3940   28.5564 H   0  0  0  0  0  0
   60.1866  -32.8483   27.9917 H   0  0  0  0  0  0
   63.0636  -33.0516   26.1763 H   0  0  0  0  0  0
   71.4464  -35.1288   28.5930 H   0  0  0  0  0  0
   69.4456  -37.0176   29.5782 Cl  0  0  0  0  0  0
   67.2337  -36.0634   28.4176 H   0  0  0  0  0  0
  1  2  1  0  0  0
  2  7  1  0  0  0
  2  3  2  0  0  0
  3  4  1  0  0  0
  3 43  1  0  0  0
  4  5  2  0  0  0
  4 42  1  0  0  0
  5  6  1  0  0  0
  5 41  1  0  0  0
  6 10  1  0  0  0
  6  7  2  0  0  0
  7  8  1  0  0  0
  8  9  2  0  0  0
  8 14  1  0  0  0
  9 10  1  0  0  0
  9 11  1  0  0  0
 11 12  2  0  0  0
 11 13  1  0  0  0
 14 15  1  0  0  0
 14 16  1  0  0  0
 14 17  1  0  0  0
 17 18  1  0  0  0
 17 19  1  0  0  0
 17 20  1  0  0  0
 20 21  1  0  0  0
 20 22  1  0  0  0
 20 23  1  0  0  0
 23 24  1  0  0  0
 24 29  1  0  0  0
 24 25  2  0  0  0
 25 26  1  0  0  0
 25 40  1  0  0  0
 26 27  2  0  0  0
 26 36  1  0  0  0
 27 28  1  0  0  0
 27 35  1  0  0  0
 28 29  2  0  0  0
 28 31  1  0  0  0
 29 30  1  0  0  0
 31 32  1  0  0  0
 31 33  1  0  0  0
 31 34  1  0  0  0
 36 37  1  0  0  0
 36 38  1  0  0  0
 36 39  1  0  0  0
M  CHG  1  13  -1
M  END
> <s_m_source_file>
ligprep_mcl1.smi

> <i_m_source_file_index>
37

> <i_lp_mmshare_version>
53161

> <i_f3d_flags>
0

> <s_epik_input>
W2NIXTFjKENsKVtjSF1bY0hdYyhjMTIpYyhjKHMyKUMoPU8pW09IXSlbQ0gyXVtDSDJdW0NIMl1PYzNbY0hdYyhbQ0gzXSljKENsKWMoW2NIXTMpW0NIM10=

> <s_epik_cmdline>
J2VwaWtfcHl0aG9uJywgJy1waHQnLCAnMC4wJywgJy1waCcsICc3LjQnLCAnLXRuJywgJzgnLCAnLW1hJywgJzUwMCcsICctaW1hZScsICc8aW5maWxlLm1hZT4nLCAnLW9tYWUnLCAnPG91dGZpbGUubWFlPic=

> <r_lp_tautomer_probability>
1

> <r_epik_Ionization_Penalty>
  0.0001

> <r_epik_Ionization_Penalty_Charging>
  0.0001

> <r_epik_Ionization_Penalty_Neutral>
  0.0000

> <r_epik_State_Penalty>
 -0.0000

> <r_epik_Charging_Adjusted_Penalty>
9.09346e-05

> <i_epik_Tot_Q>
-1

> <i_epik_Tot_abs_Q>
1

> <s_lp_Force_Field>
S-OPLS

> <r_lp_Energy>
35.9798

> <b_lp_Chiralities_Consistent>
1

> <s_lp_Variant>
lig_63-1

> <s_i_glide_gridfile>
glide-grid_MCL1-4HW3

> <i_i_glide_lignum>
37

> <i_i_glide_rotatable_bonds>
6

> <r_i_docking_score>
-8.6529379917974

> <r_i_glide_ligand_efficiency>
-0.332805307376823

> <r_i_glide_ligand_efficiency_sa>
-0.985934413578188

> <r_i_glide_ligand_efficiency_ln>
-2.03211409476826

> <r_i_glide_gscore>
-8.6529379917974

> <r_i_glide_lipo>
-5.69648402815472

> <r_i_glide_hbond>
-0.232965955763248

> <r_i_glide_metal>
-0

> <r_i_glide_rewards>
-1.50357256079788

> <r_i_glide_evdw>
-31.0384998321533

> <r_i_glide_ecoul>
-2.25193166732788

> <r_i_glide_erotb>
0.708242865114977

> <r_i_glide_esite>
-0.0384435704896766

> <r_i_glide_emodel>
-47.0950647485723

> <r_i_glide_energy>
-33.2904314994812

> <r_i_glide_einternal>
1.40888332111899e-07

> <i_i_glide_confnum>
2

> <i_i_glide_posenum>
2

> <r_i_glide_eff_state_penalty>
-0

> <r_i_glide_rmsd>
0.103920290338666

> <s_glide_core_constrain_type>
snapped_core_restrain

$$$$
lig_30
                    3D
 Schrodinger Suite 2022-3.
 41 43  0  0  1  0            999 V2000
   68.0060  -36.4149   28.5039 H   0  0  0  0  0  0
   68.6982  -35.7002   28.0839 C   0  0  0  0  0  0
   70.0196  -35.6291   28.5638 C   0  0  0  0  0  0
   70.9151  -34.6907   28.0179 C   0  0  0  0  0  0
   70.4831  -33.8357   26.9859 C   0  0  0  0  0  0
   69.1578  -33.8957   26.4689 C   0  0  0  0  0  0
   68.2747  -34.8421   27.0490 C   0  0  0  0  0  0
   67.2559  -34.9065   26.6925 H   0  0  0  0  0  0
   69.0418  -32.9102   25.4279 C   0  0  0  0  0  0
   70.2558  -32.2617   25.3430 C   0  0  0  0  0  0
   71.1088  -32.8271   26.2760 N   0  0  0  0  0  0
   72.0567  -32.4889   26.3669 H   0  0  0  0  0  0
   70.7848  -31.1444   24.5143 C   0  0  0  0  0  0
   70.1042  -30.6729   23.5746 O   0  0  0  0  0  0
   71.9131  -30.6732   24.7783 O   0  5  0  0  0  0
   67.8162  -32.6134   24.6191 C   0  0  0  0  0  0
   67.1079  -33.4380   24.6765 H   0  0  0  0  0  0
   68.0926  -32.5299   23.5719 H   0  0  0  0  0  0
   67.1314  -31.3111   25.0630 C   0  0  0  0  0  0
   66.3503  -31.0540   24.3495 H   0  0  0  0  0  0
   67.8511  -30.4935   25.0297 H   0  0  0  0  0  0
   66.5096  -31.3839   26.4643 C   0  0  0  0  0  0
   66.2210  -30.3794   26.7800 H   0  0  0  0  0  0
   67.2248  -31.7711   27.1915 H   0  0  0  0  0  0
   65.3677  -32.2215   26.3781 O   0  0  0  0  0  0
   64.5053  -32.2437   27.4456 C   0  0  0  0  0  0
   63.2054  -32.7302   27.1990 C   0  0  0  0  0  0
   62.2774  -32.8388   28.2517 C   0  0  0  0  0  0
   62.6252  -32.4128   29.5495 C   0  0  0  0  0  0
   63.9123  -31.8932   29.8010 C   0  0  0  0  0  0
   64.8542  -31.8231   28.7538 C   0  0  0  0  0  0
   65.8420  -31.4455   28.9724 H   0  0  0  0  0  0
   64.2842  -31.4169   31.1932 C   0  0  0  0  0  0
   63.3931  -31.2974   31.8112 H   0  0  0  0  0  0
   64.8056  -30.4595   31.1520 H   0  0  0  0  0  0
   64.9421  -32.1416   31.6781 H   0  0  0  0  0  0
   61.9055  -32.4870   30.3523 H   0  0  0  0  0  0
   61.2885  -33.2331   28.0573 H   0  0  0  0  0  0
   62.9275  -33.0538   26.2049 H   0  0  0  0  0  0
   71.9298  -34.6267   28.3858 H   0  0  0  0  0  0
   70.3401  -36.2882   29.3577 H   0  0  0  0  0  0
  1  2  1  0  0  0
  2  7  1  0  0  0
  2  3  2  0  0  0
  3  4  1  0  0  0
  3 41  1  0  0  0
  4  5  2  0  0  0
  4 40  1  0  0  0
  5 11  1  0  0  0
  5  6  1  0  0  0
  6  7  2  0  0  0
  6  9  1  0  0  0
  7  8  1  0  0  0
  9 10  2  0  0  0
  9 16  1  0  0  0
 10 11  1  0  0  0
 10 13  1  0  0  0
 11 12  1  0  0  0
 13 14  2  0  0  0
 13 15  1  0  0  0
 16 17  1  0  0  0
 16 18  1  0  0  0
 16 19  1  0  0  0
 19 20  1  0  0  0
 19 21  1  0  0  0
 19 22  1  0  0  0
 22 23  1  0  0  0
 22 24  1  0  0  0
 22 25  1  0  0  0
 25 26  1  0  0  0
 26 31  1  0  0  0
 26 27  2  0  0  0
 27 28  1  0  0  0
 27 39  1  0  0  0
 28 29  2  0  0  0
 28 38  1  0  0  0
 29 30  1  0  0  0
 29 37  1  0  0  0
 30 31  2  0  0  0
 30 33  1  0  0  0
 31 32  1  0  0  0
 33 34  1  0  0  0
 33 35  1  0  0  0
 33 36  1  0  0  0
M  CHG  1  15  -1
M  END
> <s_m_source_file>
ligprep_mcl1.smi

> <i_m_source_file_index>
6

> <i_lp_mmshare_version>
53161

> <i_f3d_flags>
0

> <s_epik_input>
W2NIXTFbY0hdW2NIXVtjSF1jKGMxMiljKGMoW25IXTIpQyg9TylbT0hdKVtDSDJdW0NIMl1bQ0gyXU9jM1tjSF1bY0hdW2NIXWMoW2NIXTMpW0NIM10=

> <s_epik_cmdline>
J2VwaWtfcHl0aG9uJywgJy1waHQnLCAnMC4wJywgJy1waCcsICc3LjQnLCAnLXRuJywgJzgnLCAnLW1hJywgJzUwMCcsICctaW1hZScsICc8aW5maWxlLm1hZT4nLCAnLW9tYWUnLCAnPG91dGZpbGUubWFlPic=

> <r_lp_tautomer_probability>
1

> <r_epik_Ionization_Penalty>
  0.0005

> <r_epik_Ionization_Penalty_Charging>
  0.0005

> <r_epik_Ionization_Penalty_Neutral>
  0.0000

> <r_epik_State_Penalty>
 -0.0000

> <r_epik_Charging_Adjusted_Penalty>
0.00045214

> <i_epik_Tot_Q>
-1

> <i_epik_Tot_abs_Q>
1

> <s_lp_Force_Field>
S-OPLS

> <r_lp_Energy>
34.4174

> <b_lp_Chiralities_Consistent>
1

> <s_lp_Variant>
lig_30-1

> <s_i_glide_gridfile>
glide-grid_MCL1-4HW3

> <i_i_glide_lignum>
6

> <i_i_glide_rotatable_bonds>
6

> <r_i_docking_score>
-8.54536064750542

> <r_i_glide_ligand_efficiency>
-0.371537419456757

> <r_i_glide_ligand_efficiency_sa>
-1.05660299786801

> <r_i_glide_ligand_efficiency_ln>
-2.06634568961318

> <r_i_glide_gscore>
-8.54536064750542

> <r_i_glide_lipo>
-4.85445528248256

> <r_i_glide_hbond>
-0.465161267353315

> <r_i_glide_metal>
-0

> <r_i_glide_rewards>
-1.96469313674155

> <r_i_glide_evdw>
-38.5309944152832

> <r_i_glide_ecoul>
-3.01443195343018

> <r_i_glide_erotb>
1.16744936544065

> <r_i_glide_esite>
-0.0497858125899518

> <r_i_glide_emodel>
-70.0305752252451

> <r_i_glide_energy>
-41.5454263687134

> <r_i_glide_einternal>
1.0262508392334

> <i_i_glide_confnum>
8

> <i_i_glide_posenum>
48

> <r_i_glide_eff_state_penalty>
-0

> <r_i_glide_rmsd>
0.095351168729501

> <s_glide_core_constrain_type>
snapped_core_restrain

$$$$
lig_33
                    3D
 Schrodinger Suite 2022-3.
 38 40  0  0  1  0            999 V2000
   68.0241  -36.4209   28.5019 H   0  0  0  0  0  0
   68.7145  -35.7044   28.0770 C   0  0  0  0  0  0
   70.0287  -35.6093   28.5751 C   0  0  0  0  0  0
   70.9205  -34.6695   28.0253 C   0  0  0  0  0  0
   70.4899  -33.8368   26.9747 C   0  0  0  0  0  0
   69.1719  -33.9197   26.4423 C   0  0  0  0  0  0
   68.2940  -34.8693   27.0228 C   0  0  0  0  0  0
   67.2829  -34.9545   26.6506 H   0  0  0  0  0  0
   69.0516  -32.9435   25.3907 C   0  0  0  0  0  0
   70.2620  -32.2915   25.3022 C   0  0  0  0  0  0
   71.1096  -32.8306   26.2597 N   0  0  0  0  0  0
   72.0477  -32.4725   26.3692 H   0  0  0  0  0  0
   70.7820  -31.1764   24.4639 C   0  0  0  0  0  0
   71.8782  -30.6561   24.7675 O   0  0  0  0  0  0
   70.1279  -30.7602   23.4798 O   0  5  0  0  0  0
   67.8174  -32.6361   24.5919 C   0  0  0  0  0  0
   67.0996  -33.4545   24.6560 H   0  0  0  0  0  0
   68.0758  -32.5568   23.5349 H   0  0  0  0  0  0
   67.1495  -31.3251   25.0477 C   0  0  0  0  0  0
   66.3668  -31.0527   24.3401 H   0  0  0  0  0  0
   67.8793  -30.5178   25.0135 H   0  0  0  0  0  0
   66.5419  -31.3943   26.4568 C   0  0  0  0  0  0
   66.2627  -30.3888   26.7801 H   0  0  0  0  0  0
   67.2539  -31.7964   27.1786 H   0  0  0  0  0  0
   65.3941  -32.2183   26.3781 O   0  0  0  0  0  0
   64.5274  -32.2441   27.4406 C   0  0  0  0  0  0
   64.8668  -31.8338   28.7536 C   0  0  0  0  0  0
   63.9237  -31.9568   29.7913 C   0  0  0  0  0  0
   62.6413  -32.4690   29.5172 C   0  0  0  0  0  0
   62.2851  -32.8409   28.2101 C   0  0  0  0  0  0
   63.2316  -32.7294   27.1778 C   0  0  0  0  0  0
   62.9690  -33.0419   26.1770 H   0  0  0  0  0  0
   61.2982  -33.2273   28.0016 H   0  0  0  0  0  0
   61.4896  -32.6528   30.7781 Cl  0  0  0  0  0  0
   64.1853  -31.6617   30.7972 H   0  0  0  0  0  0
   65.8421  -31.4336   28.9854 H   0  0  0  0  0  0
   71.9270  -34.5836   28.4086 H   0  0  0  0  0  0
   70.3466  -36.2529   29.3838 H   0  0  0  0  0  0
  1  2  1  0  0  0
  2  7  1  0  0  0
  2  3  2  0  0  0
  3  4  1  0  0  0
  3 38  1  0  0  0
  4  5  2  0  0  0
  4 37  1  0  0  0
  5 11  1  0  0  0
  5  6  1  0  0  0
  6  7  2  0  0  0
  6  9  1  0  0  0
  7  8  1  0  0  0
  9 10  2  0  0  0
  9 16  1  0  0  0
 10 11  1  0  0  0
 10 13  1  0  0  0
 11 12  1  0  0  0
 13 14  2  0  0  0
 13 15  1  0  0  0
 16 17  1  0  0  0
 16 18  1  0  0  0
 16 19  1  0  0  0
 19 20  1  0  0  0
 19 21  1  0  0  0
 19 22  1  0  0  0
 22 23  1  0  0  0
 22 24  1  0  0  0
 22 25  1  0  0  0
 25 26  1  0  0  0
 26 31  1  0  0  0
 26 27  2  0  0  0
 27 28  1  0  0  0
 27 36  1  0  0  0
 28 29  2  0  0  0
 28 35  1  0  0  0
 29 30  1  0  0  0
 29 34  1  0  0  0
 30 31  2  0  0  0
 30 33  1  0  0  0
 31 32  1  0  0  0
M  CHG  1  15  -1
M  END
> <s_m_source_file>
ligprep_mcl1.smi

> <i_m_source_file_index>
9

> <i_lp_mmshare_version>
53161

> <i_f3d_flags>
0

> <s_epik_input>
W2NIXTFbY0hdW2NIXVtjSF1jKGMxMiljKGMoW25IXTIpQyg9TylbT0hdKVtDSDJdW0NIMl1bQ0gyXU9jM1tjSF1bY0hdYyhDbClbY0hdW2NIXTM=

> <s_epik_cmdline>
J2VwaWtfcHl0aG9uJywgJy1waHQnLCAnMC4wJywgJy1waCcsICc3LjQnLCAnLXRuJywgJzgnLCAnLW1hJywgJzUwMCcsICctaW1hZScsICc8aW5maWxlLm1hZT4nLCAnLW9tYWUnLCAnPG91dGZpbGUubWFlPic=

> <r_lp_tautomer_probability>
1

> <r_epik_Ionization_Penalty>
  0.0005

> <r_epik_Ionization_Penalty_Charging>
  0.0005

> <r_epik_Ionization_Penalty_Neutral>
  0.0000

> <r_epik_State_Penalty>
 -0.0000

> <r_epik_Charging_Adjusted_Penalty>
0.000518745

> <i_epik_Tot_Q>
-1

> <i_epik_Tot_abs_Q>
1

> <s_lp_Force_Field>
S-OPLS

> <r_lp_Energy>
33.2994

> <b_lp_Chiralities_Consistent>
1

> <s_lp_Variant>
lig_33-1

> <s_i_glide_gridfile>
glide-grid_MCL1-4HW3

> <i_i_glide_lignum>
9

> <i_i_glide_rotatable_bonds>
6

> <r_i_docking_score>
-8.52263787200663

> <r_i_glide_ligand_efficiency>
-0.370549472695941

> <r_i_glide_ligand_efficiency_sa>
-1.05379340870001

> <r_i_glide_ligand_efficiency_ln>
-2.06085111645883

> <r_i_glide_gscore>
-8.52263787200663

> <r_i_glide_lipo>
-4.83971167619644

> <r_i_glide_hbond>
-0.434368796873285

> <r_i_glide_metal>
-0

> <r_i_glide_rewards>
-1.81423956149484

> <r_i_glide_evdw>
-39.2391662597656

> <r_i_glide_ecoul>
-3.11091017723083

> <r_i_glide_erotb>
1.04280329696995

> <r_i_glide_esite>
-0.0485262948391015

> <r_i_glide_emodel>
-71.1444389926518

> <r_i_glide_energy>
-42.3500764369965

> <r_i_glide_einternal>
0.416949421167374

> <i_i_glide_confnum>
2

> <i_i_glide_posenum>
24

> <r_i_glide_eff_state_penalty>
-0

> <r_i_glide_rmsd>
0.0924209147072243

> <s_glide_core_constrain_type>
snapped_core_restrain

$$$$
lig_32
                    3D
 Schrodinger Suite 2022-3.
 41 43  0  0  1  0            999 V2000
   68.0899  -36.4199   28.5324 H   0  0  0  0  0  0
   68.7696  -35.7042   28.0911 C   0  0  0  0  0  0
   70.0985  -35.6183   28.5499 C   0  0  0  0  0  0
   70.9788  -34.6825   27.9725 C   0  0  0  0  0  0
   70.5191  -33.8428   26.9386 C   0  0  0  0  0  0
   69.1859  -33.9209   26.4440 C   0  0  0  0  0  0
   68.3224  -34.8658   27.0500 C   0  0  0  0  0  0
   67.3008  -34.9453   26.7059 H   0  0  0  0  0  0
   69.0406  -32.9480   25.3948 C   0  0  0  0  0  0
   70.2501  -32.2988   25.2703 C   0  0  0  0  0  0
   71.1208  -32.8359   26.2068 N   0  0  0  0  0  0
   72.0627  -32.4803   26.2923 H   0  0  0  0  0  0
   70.7481  -31.1921   24.4087 C   0  0  0  0  0  0
   71.8458  -30.6588   24.6831 O   0  0  0  0  0  0
   70.0736  -30.7964   23.4307 O   0  5  0  0  0  0
   67.7906  -32.6484   24.6165 C   0  0  0  0  0  0
   67.0765  -33.4679   24.7012 H   0  0  0  0  0  0
   68.0302  -32.5787   23.5558 H   0  0  0  0  0  0
   67.1282  -31.3357   25.0677 C   0  0  0  0  0  0
   66.3552  -31.0570   24.3516 H   0  0  0  0  0  0
   67.8650  -30.5339   25.0429 H   0  0  0  0  0  0
   66.5034  -31.4062   26.4667 C   0  0  0  0  0  0
   66.2279  -30.4002   26.7888 H   0  0  0  0  0  0
   67.2091  -31.8129   27.1911 H   0  0  0  0  0  0
   65.3475  -32.2228   26.3781 O   0  0  0  0  0  0
   64.4846  -32.2507   27.4447 C   0  0  0  0  0  0
   63.1860  -32.7348   27.1932 C   0  0  0  0  0  0
   62.2566  -32.8575   28.2416 C   0  0  0  0  0  0
   62.6124  -32.4782   29.5524 C   0  0  0  0  0  0
   63.8983  -31.9584   29.8045 C   0  0  0  0  0  0
   64.8327  -31.8449   28.7564 C   0  0  0  0  0  0
   65.8181  -31.4687   28.9850 H   0  0  0  0  0  0
   64.1793  -31.6667   30.8058 H   0  0  0  0  0  0
   61.6260  -32.6535   30.6884 C   0  0  0  0  0  0
   61.7312  -31.8573   31.4267 H   0  0  0  0  0  0
   61.8061  -33.6104   31.1781 H   0  0  0  0  0  0
   60.5976  -32.6539   30.3254 H   0  0  0  0  0  0
   61.2725  -33.2542   28.0371 H   0  0  0  0  0  0
   62.9114  -33.0472   26.1959 H   0  0  0  0  0  0
   71.9969  -34.6048   28.3221 H   0  0  0  0  0  0
   70.4396  -36.2674   29.3442 H   0  0  0  0  0  0
  1  2  1  0  0  0
  2  7  1  0  0  0
  2  3  2  0  0  0
  3  4  1  0  0  0
  3 41  1  0  0  0
  4  5  2  0  0  0
  4 40  1  0  0  0
  5 11  1  0  0  0
  5  6  1  0  0  0
  6  7  2  0  0  0
  6  9  1  0  0  0
  7  8  1  0  0  0
  9 10  2  0  0  0
  9 16  1  0  0  0
 10 11  1  0  0  0
 10 13  1  0  0  0
 11 12  1  0  0  0
 13 14  2  0  0  0
 13 15  1  0  0  0
 16 17  1  0  0  0
 16 18  1  0  0  0
 16 19  1  0  0  0
 19 20  1  0  0  0
 19 21  1  0  0  0
 19 22  1  0  0  0
 22 23  1  0  0  0
 22 24  1  0  0  0
 22 25  1  0  0  0
 25 26  1  0  0  0
 26 31  1  0  0  0
 26 27  2  0  0  0
 27 28  1  0  0  0
 27 39  1  0  0  0
 28 29  2  0  0  0
 28 38  1  0  0  0
 29 30  1  0  0  0
 29 34  1  0  0  0
 30 31  2  0  0  0
 30 33  1  0  0  0
 31 32  1  0  0  0
 34 35  1  0  0  0
 34 36  1  0  0  0
 34 37  1  0  0  0
M  CHG  1  15  -1
M  END
> <s_m_source_file>
ligprep_mcl1.smi

> <i_m_source_file_index>
8

> <i_lp_mmshare_version>
53161

> <i_f3d_flags>
0

> <s_epik_input>
W2NIXTFbY0hdW2NIXVtjSF1jKGMxMiljKGMoW25IXTIpQyg9TylbT0hdKVtDSDJdW0NIMl1bQ0gyXU9jM1tjSF1bY0hdYyhbQ0gzXSlbY0hdW2NIXTM=

> <s_epik_cmdline>
J2VwaWtfcHl0aG9uJywgJy1waHQnLCAnMC4wJywgJy1waCcsICc3LjQnLCAnLXRuJywgJzgnLCAnLW1hJywgJzUwMCcsICctaW1hZScsICc8aW5maWxlLm1hZT4nLCAnLW9tYWUnLCAnPG91dGZpbGUubWFlPic=

> <r_lp_tautomer_probability>
1

> <r_epik_Ionization_Penalty>
  0.0005

> <r_epik_Ionization_Penalty_Charging>
  0.0005

> <r_epik_Ionization_Penalty_Neutral>
  0.0000

> <r_epik_State_Penalty>
 -0.0000

> <r_epik_Charging_Adjusted_Penalty>
0.000454155

> <i_epik_Tot_Q>
-1

> <i_epik_Tot_abs_Q>
1

> <s_lp_Force_Field>
S-OPLS

> <r_lp_Energy>
32.6067

> <b_lp_Chiralities_Consistent>
1

> <s_lp_Variant>
lig_32-1

> <s_i_glide_gridfile>
glide-grid_MCL1-4HW3

> <i_i_glide_lignum>
8

> <i_i_glide_rotatable_bonds>
6

> <r_i_docking_score>
-8.50189089472525

> <r_i_glide_ligand_efficiency>
-0.369647430205446

> <r_i_glide_ligand_efficiency_sa>
-1.05122811984955

> <r_i_glide_ligand_efficiency_ln>
-2.05583430922901

> <r_i_glide_gscore>
-8.50189089472525

> <r_i_glide_lipo>
-4.82223196649819

> <r_i_glide_hbond>
-0.408224806598405

> <r_i_glide_metal>
-0

> <r_i_glide_rewards>
-1.98509493497294

> <r_i_glide_evdw>
-38.3433990478516

> <r_i_glide_ecoul>
-3.26107120513916

> <r_i_glide_erotb>
1.16744936544065

> <r_i_glide_esite>
-0.0474579189329131

> <r_i_glide_emodel>
-69.2646548914072

> <r_i_glide_energy>
-41.6044702529907

> <r_i_glide_einternal>
2.65060663223267

> <i_i_glide_confnum>
5

> <i_i_glide_posenum>
48

> <r_i_glide_eff_state_penalty>
-0

> <r_i_glide_rmsd>
0.102533375423064

> <s_glide_core_constrain_type>
snapped_core_restrain

$$$$
lig_28
                    3D
 Schrodinger Suite 2022-3.
 41 43  0  0  1  0            999 V2000
   67.9831  -36.3226   28.5518 H   0  0  0  0  0  0
   68.6821  -35.6104   28.1381 C   0  0  0  0  0  0
   69.9728  -35.4977   28.6884 C   0  0  0  0  0  0
   70.8815  -34.5629   28.1554 C   0  0  0  0  0  0
   70.4857  -33.7529   27.0751 C   0  0  0  0  0  0
   69.1919  -33.8527   26.4930 C   0  0  0  0  0  0
   68.2984  -34.7975   27.0543 C   0  0  0  0  0  0
   67.3051  -34.8907   26.6420 H   0  0  0  0  0  0
   69.1072  -32.8954   25.4214 C   0  0  0  0  0  0
   70.3168  -32.2343   25.3716 C   0  0  0  0  0  0
   71.1308  -32.7599   26.3622 N   0  0  0  0  0  0
   72.0647  -32.3984   26.4964 H   0  0  0  0  0  0
   70.8787  -31.1275   24.5486 C   0  0  0  0  0  0
   71.9910  -30.6522   24.8599 O   0  0  0  0  0  0
   70.2444  -30.6726   23.5699 O   0  5  0  0  0  0
   67.9030  -32.6381   24.5686 C   0  0  0  0  0  0
   67.1974  -33.4672   24.6352 H   0  0  0  0  0  0
   68.1961  -32.5759   23.5196 H   0  0  0  0  0  0
   67.1880  -31.3445   24.9698 C   0  0  0  0  0  0
   66.4221  -31.1156   24.2320 H   0  0  0  0  0  0
   67.8961  -30.5192   24.9248 H   0  0  0  0  0  0
   66.5403  -31.3648   26.3530 C   0  0  0  0  0  0
   66.2268  -30.3483   26.5827 H   0  0  0  0  0  0
   67.2938  -31.6846   27.0625 H   0  0  0  0  0  0
   65.4147  -32.2318   26.3804 O   0  0  0  0  0  0
   64.5437  -32.2336   27.4603 C   0  0  0  0  0  0
   63.2600  -32.7465   27.1751 C   0  0  0  0  0  0
   62.2734  -32.8777   28.1714 C   0  0  0  0  0  0
   62.5578  -32.4704   29.4849 C   0  0  0  0  0  0
   63.8130  -31.9198   29.7889 C   0  0  0  0  0  0
   64.8072  -31.8089   28.8008 C   0  0  0  0  0  0
   66.1081  -31.2228   29.2765 C   0  0  0  0  0  0
   66.9380  -31.9198   29.1544 H   0  0  0  0  0  0
   66.2422  -30.3201   28.6932 H   0  0  0  0  0  0
   66.0813  -30.9266   30.3263 H   0  0  0  0  0  0
   64.0050  -31.6044   30.8047 H   0  0  0  0  0  0
   61.8095  -32.5657   30.2588 H   0  0  0  0  0  0
   61.3052  -33.2849   27.9194 H   0  0  0  0  0  0
   63.0342  -33.0685   26.1683 H   0  0  0  0  0  0
   71.8736  -34.4608   28.5704 H   0  0  0  0  0  0
   70.2626  -36.1241   29.5195 H   0  0  0  0  0  0
  1  2  1  0  0  0
  2  7  1  0  0  0
  2  3  2  0  0  0
  3  4  1  0  0  0
  3 41  1  0  0  0
  4  5  2  0  0  0
  4 40  1  0  0  0
  5 11  1  0  0  0
  5  6  1  0  0  0
  6  7  2  0  0  0
  6  9  1  0  0  0
  7  8  1  0  0  0
  9 10  2  0  0  0
  9 16  1  0  0  0
 10 11  1  0  0  0
 10 13  1  0  0  0
 11 12  1  0  0  0
 13 14  2  0  0  0
 13 15  1  0  0  0
 16 17  1  0  0  0
 16 18  1  0  0  0
 16 19  1  0  0  0
 19 20  1  0  0  0
 19 21  1  0  0  0
 19 22  1  0  0  0
 22 23  1  0  0  0
 22 24  1  0  0  0
 22 25  1  0  0  0
 25 26  1  0  0  0
 26 31  1  0  0  0
 26 27  2  0  0  0
 27 28  1  0  0  0
 27 39  1  0  0  0
 28 29  2  0  0  0
 28 38  1  0  0  0
 29 30  1  0  0  0
 29 37  1  0  0  0
 30 31  2  0  0  0
 30 36  1  0  0  0
 31 32  1  0  0  0
 32 33  1  0  0  0
 32 34  1  0  0  0
 32 35  1  0  0  0
M  CHG  1  15  -1
M  END
> <s_m_source_file>
ligprep_mcl1.smi

> <i_m_source_file_index>
4

> <i_lp_mmshare_version>
53161

> <i_f3d_flags>
0

> <s_epik_input>
W2NIXTFbY0hdW2NIXVtjSF1jKGMxMiljKGMoW25IXTIpQyg9TylbT0hdKVtDSDJdW0NIMl1bQ0gyXU9jM1tjSF1bY0hdW2NIXVtjSF1jM1tDSDNd

> <s_epik_cmdline>
J2VwaWtfcHl0aG9uJywgJy1waHQnLCAnMC4wJywgJy1waCcsICc3LjQnLCAnLXRuJywgJzgnLCAnLW1hJywgJzUwMCcsICctaW1hZScsICc8aW5maWxlLm1hZT4nLCAnLW9tYWUnLCAnPG91dGZpbGUubWFlPic=

> <r_lp_tautomer_probability>
1

> <r_epik_Ionization_Penalty>
  0.0005

> <r_epik_Ionization_Penalty_Charging>
  0.0005

> <r_epik_Ionization_Penalty_Neutral>
  0.0000

> <r_epik_State_Penalty>
 -0.0000

> <r_epik_Charging_Adjusted_Penalty>
0.000454828

> <i_epik_Tot_Q>
-1

> <i_epik_Tot_abs_Q>
1

> <s_lp_Force_Field>
S-OPLS

> <r_lp_Energy>
34.9348

> <b_lp_Chiralities_Consistent>
1

> <s_lp_Variant>
lig_28-1

> <s_i_glide_gridfile>
glide-grid_MCL1-4HW3

> <i_i_glide_lignum>
4

> <i_i_glide_rotatable_bonds>
6

> <r_i_docking_score>
-8.28114856648028

> <r_i_glide_ligand_efficiency>
-0.360049937673056

> <r_i_glide_ligand_efficiency_sa>
-1.02393412777584

> <r_i_glide_ligand_efficiency_ln>
-2.0024568126786

> <r_i_glide_gscore>
-8.28114856648028

> <r_i_glide_lipo>
-4.83783383747925

> <r_i_glide_hbond>
-0.474008366558091

> <r_i_glide_metal>
-0

> <r_i_glide_rewards>
-1.95339116000886

> <r_i_glide_evdw>
-33.2564392089844

> <r_i_glide_ecoul>
-3.09814286231995

> <r_i_glide_erotb>
1.16744936544065

> <r_i_glide_esite>
-0.055821178077511

> <r_i_glide_emodel>
-56.5130592966207

> <r_i_glide_energy>
-36.3545820713043

> <r_i_glide_einternal>
0.436520308256149

> <i_i_glide_confnum>
5

> <i_i_glide_posenum>
25

> <r_i_glide_eff_state_penalty>
-0

> <r_i_glide_rmsd>
0.110049445541004

> <s_glide_core_constrain_type>
snapped_core_restrain

$$$$
lig_27
                    3D
 Schrodinger Suite 2022-3.
 38 40  0  0  1  0            999 V2000
   61.9161  -32.4700   30.3526 H   0  0  0  0  0  0
   62.6359  -32.4071   29.5489 C   0  0  0  0  0  0
   63.9230  -31.8909   29.7944 C   0  0  0  0  0  0
   64.8652  -31.8243   28.7496 C   0  0  0  0  0  0
   64.5156  -32.2517   27.4444 C   0  0  0  0  0  0
   63.2146  -32.7360   27.2032 C   0  0  0  0  0  0
   62.2824  -32.8353   28.2537 C   0  0  0  0  0  0
   61.2924  -33.2243   28.0616 H   0  0  0  0  0  0
   62.9388  -33.0593   26.2096 H   0  0  0  0  0  0
   65.3783  -32.2371   26.3760 O   0  0  0  0  0  0
   66.5232  -31.4038   26.4500 C   0  0  0  0  0  0
   66.2383  -30.4003   26.7740 H   0  0  0  0  0  0
   67.2376  -31.7977   27.1730 H   0  0  0  0  0  0
   67.1407  -31.3284   25.0459 C   0  0  0  0  0  0
   66.3619  -31.0568   24.3330 H   0  0  0  0  0  0
   67.8716  -30.5207   25.0187 H   0  0  0  0  0  0
   67.8184  -32.6334   24.5927 C   0  0  0  0  0  0
   67.1054  -33.4556   24.6574 H   0  0  0  0  0  0
   68.0790  -32.5526   23.5370 H   0  0  0  0  0  0
   69.0517  -32.9349   25.3960 C   0  0  0  0  0  0
   70.2677  -32.2915   25.2945 C   0  0  0  0  0  0
   71.1103  -32.8161   26.2621 N   0  0  0  0  0  0
   70.4838  -33.8055   26.9963 C   0  0  0  0  0  0
   69.1647  -33.8894   26.4671 C   0  0  0  0  0  0
   68.2799  -34.8194   27.0686 C   0  0  0  0  0  0
   68.6955  -35.6361   28.1399 C   0  0  0  0  0  0
   70.0127  -35.5431   28.6325 C   0  0  0  0  0  0
   70.9108  -34.6201   28.0623 C   0  0  0  0  0  0
   71.9181  -34.5357   28.4398 H   0  0  0  0  0  0
   70.3289  -36.1746   29.4509 H   0  0  0  0  0  0
   68.0015  -36.3389   28.5791 H   0  0  0  0  0  0
   67.2670  -34.8990   26.7007 H   0  0  0  0  0  0
   72.0524  -32.4628   26.3651 H   0  0  0  0  0  0
   70.8014  -31.1976   24.4365 C   0  0  0  0  0  0
   70.1760  -30.8224   23.4184 O   0  0  0  0  0  0
   71.8825  -30.6536   24.7557 O   0  5  0  0  0  0
   65.8521  -31.4461   28.9706 H   0  0  0  0  0  0
   64.1924  -31.5622   30.7878 H   0  0  0  0  0  0
  1  2  1  0  0  0
  2  7  1  0  0  0
  2  3  2  0  0  0
  3  4  1  0  0  0
  3 38  1  0  0  0
  4  5  2  0  0  0
  4 37  1  0  0  0
  5  6  1  0  0  0
  5 10  1  0  0  0
  6  7  2  0  0  0
  6  9  1  0  0  0
  7  8  1  0  0  0
 10 11  1  0  0  0
 11 12  1  0  0  0
 11 13  1  0  0  0
 11 14  1  0  0  0
 14 15  1  0  0  0
 14 16  1  0  0  0
 14 17  1  0  0  0
 17 18  1  0  0  0
 17 19  1  0  0  0
 17 20  1  0  0  0
 20 24  1  0  0  0
 20 21  2  0  0  0
 21 22  1  0  0  0
 21 34  1  0  0  0
 22 23  1  0  0  0
 22 33  1  0  0  0
 23 28  2  0  0  0
 23 24  1  0  0  0
 24 25  2  0  0  0
 25 26  1  0  0  0
 25 32  1  0  0  0
 26 27  2  0  0  0
 26 31  1  0  0  0
 27 28  1  0  0  0
 27 30  1  0  0  0
 28 29  1  0  0  0
 34 35  2  0  0  0
 34 36  1  0  0  0
M  CHG  1  36  -1
M  END
> <s_m_source_file>
ligprep_mcl1.smi

> <i_m_source_file_index>
3

> <i_lp_mmshare_version>
53161

> <i_f3d_flags>
0

> <s_epik_input>
W2NIXTFbY0hdW2NIXVtjSF1bY0hdYzFPW0NIMl1bQ0gyXVtDSDJdYyhjKFtuSF0yKUMoPU8pW09IXSljKGMyMylbY0hdW2NIXVtjSF1bY0hdMw==

> <s_epik_cmdline>
J2VwaWtfcHl0aG9uJywgJy1waHQnLCAnMC4wJywgJy1waCcsICc3LjQnLCAnLXRuJywgJzgnLCAnLW1hJywgJzUwMCcsICctaW1hZScsICc8aW5maWxlLm1hZT4nLCAnLW9tYWUnLCAnPG91dGZpbGUubWFlPic=

> <r_lp_tautomer_probability>
1

> <r_epik_Ionization_Penalty>
  0.0006

> <r_epik_Ionization_Penalty_Charging>
  0.0006

> <r_epik_Ionization_Penalty_Neutral>
  0.0000

> <r_epik_State_Penalty>
 -0.0000

> <r_epik_Charging_Adjusted_Penalty>
0.000566237

> <i_epik_Tot_Q>
-1

> <i_epik_Tot_abs_Q>
1

> <s_lp_Force_Field>
S-OPLS

> <r_lp_Energy>
35.4449

> <b_lp_Chiralities_Consistent>
1

> <s_lp_Variant>
lig_27-1

> <s_i_glide_gridfile>
glide-grid_MCL1-4HW3

> <i_i_glide_lignum>
3

> <i_i_glide_rotatable_bonds>
6

> <r_i_docking_score>
-6.71832588685996

> <r_i_glide_ligand_efficiency>
-0.305378449402725

> <r_i_glide_ligand_efficiency_sa>
-0.855682425079342

> <r_i_glide_ligand_efficiency_ln>
-1.6422039036395

> <r_i_glide_gscore>
-6.71832588685996

> <r_i_glide_lipo>
-4.50865224199557

> <r_i_glide_hbond>
-0.415794626771979

> <r_i_glide_metal>
-0

> <r_i_glide_rewards>
-1.97692635503657

> <r_i_glide_evdw>
-35.7976875305176

> <r_i_glide_ecoul>
-3.41090202331543

> <r_i_glide_erotb>
2.53318583634431

> <r_i_glide_esite>
-0.0486188193769556

> <r_i_glide_emodel>
-58.7957750258844

> <r_i_glide_energy>
-39.208589553833

> <r_i_glide_einternal>
0.0738022774457932

> <i_i_glide_confnum>
156

> <i_i_glide_posenum>
130

> <r_i_glide_eff_state_penalty>
-0

> <r_i_glide_rmsd>
0.094142993973318

> <s_glide_core_constrain_type>
snapped_core_restrain

$$$$
